/*---------------------------------------------------------------------------*\
| =========                 |                                                 |
| \\      /  F ield         | OpenFOAM: The Open Source CFD Toolbox           |
|  \\    /   O peration     | Version:  v1706                                 |
|   \\  /    A nd           | Web:      www.OpenFOAM.com                      |
|    \\/     M anipulation  |                                                 |
\*---------------------------------------------------------------------------*/
Build  : v1706
Arch   : "LSB;label=32;scalar=64"
Exec   : hy2Foam -parallel
Date   : Feb 25 2020
Time   : 11:45:58
Host   : "ivan-HP-EliteBook-8460p"
PID    : 15717
Case   : /home/ivan/OpenFOAM/hypersonicflowthesis/run/hyStrath/baffle/cases/case4440/equilibrium/activeVE/0.75Pa
nProcs : 2
Slaves : 1("ivan-HP-EliteBook-8460p.15718")
Pstream initialized with:
    floatTransfer      : 0
    nProcsSimpleSum    : 0
    commsType          : nonBlocking
    polling iterations : 0
sigFpe : Enabling floating point exception trapping (FOAM_SIGFPE).
fileModificationChecking : Monitoring run-time modified files using timeStampMaster (fileModificationSkew 10)
allowSystemOperations : Allowing user-supplied system call operations

// * * * * * * * * * * * * * * * * * * * * * * * * * * * * * * * * * * * * * //
Create time

Create mesh for time = 0.005

Creating reaction model

Selecting hTC model laminar2<rho2ChemistryHTC>
Selecting chemistry type 
{
    chemistrySolver Euler2Implicit;
    chemistryThermo rho2;
}

Selecting thermodynamics package 
{
    type            heRho2Thermo;
    mixture         reacting2Mixture;
    transport       BlottnerEucken;
    thermo          decoupledEnergyModes;
    energy          sensible2InternalEnergy;
    equationOfState perfect2Gas;
    specie          advancedSpecie;
}

Selecting chemistry2Reader foam2ChemistryReader
chemistry2Model: Number of species = 1 and reactions = 0
    using integrated reaction rate

Reading thermophysical properties

Reading field U

Creating turbulence model

Selecting turbulence model type laminar
Selecting laminar stress model Stokes

Loading the transport mixing rule:	Gupta

Loading the rarefaction parameters library

Loading the multispecies transport model:	Fick

No finite volume options present

fluxScheme: Kurganov
Mean and max Courant Numbers = 0.0365175 0.300974

Starting time loop

forces forces:
    Not including porosity effects
forces forceCoeffs:
    Not including porosity effects
forceCoeffs forceCoeffs:
    Not including porosity effects

wallShearStress wallShearStress:
    processing wall patches: 
        obstacle_master
        obstacle_slave

Mean and max Courant Numbers = 0.0365175 0.300974
deltaT = 2.20264e-07
Time = 0.005000220264

diagonal:  Solving for rho, Initial residual = 0, Final residual = 0, No Iterations 0
diagonal:  Solving for rhoUx, Initial residual = 0, Final residual = 0, No Iterations 0
diagonal:  Solving for rhoUy, Initial residual = 0, Final residual = 0, No Iterations 0
smoothSolver:  Solving for Ux, Initial residual = 6.09415e-05, Final residual = 1.32263e-07, No Iterations 2
smoothSolver:  Solving for Uy, Initial residual = 6.08813e-05, Final residual = 4.3499e-08, No Iterations 2
diagonal:  Solving for rhoE, Initial residual = 0, Final residual = 0, No Iterations 0
smoothSolver:  Solving for e, Initial residual = 0.00010281, Final residual = 8.51478e-08, No Iterations 4
Phase no 1.0  ExecutionTime = 5.31 s  ClockTime = 9 s  Iteration no 1 (5.31 s)

Mean and max Courant Numbers = 0.0364186 0.300162
deltaT = 2.20264e-07
Time = 0.005000440529

diagonal:  Solving for rho, Initial residual = 0, Final residual = 0, No Iterations 0
diagonal:  Solving for rhoUx, Initial residual = 0, Final residual = 0, No Iterations 0
diagonal:  Solving for rhoUy, Initial residual = 0, Final residual = 0, No Iterations 0
smoothSolver:  Solving for Ux, Initial residual = 6.09448e-05, Final residual = 1.32298e-07, No Iterations 2
smoothSolver:  Solving for Uy, Initial residual = 6.08856e-05, Final residual = 4.35097e-08, No Iterations 2
diagonal:  Solving for rhoE, Initial residual = 0, Final residual = 0, No Iterations 0
smoothSolver:  Solving for e, Initial residual = 0.000102808, Final residual = 8.51472e-08, No Iterations 4
Phase no 1.0  ExecutionTime = 7.21 s  ClockTime = 13 s  Iteration no 2 (1.9 s)

Mean and max Courant Numbers = 0.0364187 0.300166
deltaT = 2.20021e-07
Time = 0.00500066055

diagonal:  Solving for rho, Initial residual = 0, Final residual = 0, No Iterations 0
diagonal:  Solving for rhoUx, Initial residual = 0, Final residual = 0, No Iterations 0
diagonal:  Solving for rhoUy, Initial residual = 0, Final residual = 0, No Iterations 0
smoothSolver:  Solving for Ux, Initial residual = 6.08746e-05, Final residual = 1.31853e-07, No Iterations 2
smoothSolver:  Solving for Uy, Initial residual = 6.0818e-05, Final residual = 4.3368e-08, No Iterations 2
diagonal:  Solving for rhoE, Initial residual = 0, Final residual = 0, No Iterations 0
smoothSolver:  Solving for e, Initial residual = 0.000102686, Final residual = 8.47599e-08, No Iterations 4
Phase no 1.0  ExecutionTime = 9.14 s  ClockTime = 17 s  Iteration no 3 (1.93 s)

Mean and max Courant Numbers = 0.0363786 0.299839
deltaT = 2.20021e-07
Time = 0.005000880572

diagonal:  Solving for rho, Initial residual = 0, Final residual = 0, No Iterations 0
diagonal:  Solving for rhoUx, Initial residual = 0, Final residual = 0, No Iterations 0
diagonal:  Solving for rhoUy, Initial residual = 0, Final residual = 0, No Iterations 0
smoothSolver:  Solving for Ux, Initial residual = 6.08743e-05, Final residual = 1.31854e-07, No Iterations 2
smoothSolver:  Solving for Uy, Initial residual = 6.08187e-05, Final residual = 4.33698e-08, No Iterations 2
diagonal:  Solving for rhoE, Initial residual = 0, Final residual = 0, No Iterations 0
smoothSolver:  Solving for e, Initial residual = 0.000102685, Final residual = 8.47599e-08, No Iterations 4
Phase no 1.0  ExecutionTime = 11.42 s  ClockTime = 21 s  Iteration no 4 (2.28 s)

Mean and max Courant Numbers = 0.0363787 0.299843
deltaT = 2.20021e-07
Time = 0.005001100593

diagonal:  Solving for rho, Initial residual = 0, Final residual = 0, No Iterations 0
diagonal:  Solving for rhoUx, Initial residual = 0, Final residual = 0, No Iterations 0
diagonal:  Solving for rhoUy, Initial residual = 0, Final residual = 0, No Iterations 0
smoothSolver:  Solving for Ux, Initial residual = 6.0874e-05, Final residual = 1.31855e-07, No Iterations 2
smoothSolver:  Solving for Uy, Initial residual = 6.08193e-05, Final residual = 4.33716e-08, No Iterations 2
diagonal:  Solving for rhoE, Initial residual = 0, Final residual = 0, No Iterations 0
smoothSolver:  Solving for e, Initial residual = 0.000102684, Final residual = 8.47599e-08, No Iterations 4
Phase no 1.0  ExecutionTime = 13.39 s  ClockTime = 25 s  Iteration no 5 (1.97 s)

Mean and max Courant Numbers = 0.0363788 0.299847
deltaT = 2.20021e-07
Time = 0.005001320615

diagonal:  Solving for rho, Initial residual = 0, Final residual = 0, No Iterations 0
diagonal:  Solving for rhoUx, Initial residual = 0, Final residual = 0, No Iterations 0
diagonal:  Solving for rhoUy, Initial residual = 0, Final residual = 0, No Iterations 0
smoothSolver:  Solving for Ux, Initial residual = 6.08737e-05, Final residual = 1.31856e-07, No Iterations 2
smoothSolver:  Solving for Uy, Initial residual = 6.08199e-05, Final residual = 4.33733e-08, No Iterations 2
diagonal:  Solving for rhoE, Initial residual = 0, Final residual = 0, No Iterations 0
smoothSolver:  Solving for e, Initial residual = 0.000102684, Final residual = 8.47599e-08, No Iterations 4
Phase no 1.0  ExecutionTime = 15.78 s  ClockTime = 29 s  Iteration no 6 (2.39 s)

Mean and max Courant Numbers = 0.0363788 0.299852
deltaT = 2.20021e-07
Time = 0.005001540636

diagonal:  Solving for rho, Initial residual = 0, Final residual = 0, No Iterations 0
diagonal:  Solving for rhoUx, Initial residual = 0, Final residual = 0, No Iterations 0
diagonal:  Solving for rhoUy, Initial residual = 0, Final residual = 0, No Iterations 0
smoothSolver:  Solving for Ux, Initial residual = 6.08734e-05, Final residual = 1.31856e-07, No Iterations 2
smoothSolver:  Solving for Uy, Initial residual = 6.08202e-05, Final residual = 4.3375e-08, No Iterations 2
diagonal:  Solving for rhoE, Initial residual = 0, Final residual = 0, No Iterations 0
smoothSolver:  Solving for e, Initial residual = 0.000102684, Final residual = 8.47599e-08, No Iterations 4
Phase no 1.0  ExecutionTime = 18.07 s  ClockTime = 33 s  Iteration no 7 (2.29 s)

Mean and max Courant Numbers = 0.0363789 0.299856
deltaT = 2.20021e-07
Time = 0.005001760657

diagonal:  Solving for rho, Initial residual = 0, Final residual = 0, No Iterations 0
diagonal:  Solving for rhoUx, Initial residual = 0, Final residual = 0, No Iterations 0
diagonal:  Solving for rhoUy, Initial residual = 0, Final residual = 0, No Iterations 0
smoothSolver:  Solving for Ux, Initial residual = 6.0873e-05, Final residual = 1.31856e-07, No Iterations 2
smoothSolver:  Solving for Uy, Initial residual = 6.08204e-05, Final residual = 4.33765e-08, No Iterations 2
diagonal:  Solving for rhoE, Initial residual = 0, Final residual = 0, No Iterations 0
smoothSolver:  Solving for e, Initial residual = 0.000102684, Final residual = 8.476e-08, No Iterations 4
Phase no 1.0  ExecutionTime = 20.14 s  ClockTime = 37 s  Iteration no 8 (2.07 s)

Mean and max Courant Numbers = 0.036379 0.29986
deltaT = 2.20021e-07
Time = 0.005001980679

diagonal:  Solving for rho, Initial residual = 0, Final residual = 0, No Iterations 0
diagonal:  Solving for rhoUx, Initial residual = 0, Final residual = 0, No Iterations 0
diagonal:  Solving for rhoUy, Initial residual = 0, Final residual = 0, No Iterations 0
smoothSolver:  Solving for Ux, Initial residual = 6.08725e-05, Final residual = 1.31856e-07, No Iterations 2
smoothSolver:  Solving for Uy, Initial residual = 6.08204e-05, Final residual = 4.3378e-08, No Iterations 2
diagonal:  Solving for rhoE, Initial residual = 0, Final residual = 0, No Iterations 0
smoothSolver:  Solving for e, Initial residual = 0.000102685, Final residual = 8.476e-08, No Iterations 4
Phase no 1.0  ExecutionTime = 22.21 s  ClockTime = 41 s  Iteration no 9 (2.07 s)

Mean and max Courant Numbers = 0.0363791 0.299864
deltaT = 2.20021e-07
Time = 0.0050022007

diagonal:  Solving for rho, Initial residual = 0, Final residual = 0, No Iterations 0
diagonal:  Solving for rhoUx, Initial residual = 0, Final residual = 0, No Iterations 0
diagonal:  Solving for rhoUy, Initial residual = 0, Final residual = 0, No Iterations 0
smoothSolver:  Solving for Ux, Initial residual = 6.0872e-05, Final residual = 1.31855e-07, No Iterations 2
smoothSolver:  Solving for Uy, Initial residual = 6.08207e-05, Final residual = 4.33794e-08, No Iterations 2
diagonal:  Solving for rhoE, Initial residual = 0, Final residual = 0, No Iterations 0
smoothSolver:  Solving for e, Initial residual = 0.000102685, Final residual = 8.47601e-08, No Iterations 4
Phase no 1.0  ExecutionTime = 24.15 s  ClockTime = 45 s  Iteration no 10 (1.94 s)

Mean and max Courant Numbers = 0.0363791 0.299868
deltaT = 2.20021e-07
Time = 0.005002420722

diagonal:  Solving for rho, Initial residual = 0, Final residual = 0, No Iterations 0
diagonal:  Solving for rhoUx, Initial residual = 0, Final residual = 0, No Iterations 0
diagonal:  Solving for rhoUy, Initial residual = 0, Final residual = 0, No Iterations 0
smoothSolver:  Solving for Ux, Initial residual = 6.08715e-05, Final residual = 1.31855e-07, No Iterations 2
smoothSolver:  Solving for Uy, Initial residual = 6.08208e-05, Final residual = 4.33808e-08, No Iterations 2
diagonal:  Solving for rhoE, Initial residual = 0, Final residual = 0, No Iterations 0
smoothSolver:  Solving for e, Initial residual = 0.000102686, Final residual = 8.47601e-08, No Iterations 4
Phase no 1.0  ExecutionTime = 26.12 s  ClockTime = 48 s  Iteration no 11 (1.97 s)

Mean and max Courant Numbers = 0.0363792 0.299872
deltaT = 2.20021e-07
Time = 0.005002640743

diagonal:  Solving for rho, Initial residual = 0, Final residual = 0, No Iterations 0
diagonal:  Solving for rhoUx, Initial residual = 0, Final residual = 0, No Iterations 0
diagonal:  Solving for rhoUy, Initial residual = 0, Final residual = 0, No Iterations 0
smoothSolver:  Solving for Ux, Initial residual = 6.0871e-05, Final residual = 1.31854e-07, No Iterations 2
smoothSolver:  Solving for Uy, Initial residual = 6.0821e-05, Final residual = 4.33821e-08, No Iterations 2
diagonal:  Solving for rhoE, Initial residual = 0, Final residual = 0, No Iterations 0
smoothSolver:  Solving for e, Initial residual = 0.000102687, Final residual = 8.476e-08, No Iterations 4
Phase no 1.0  ExecutionTime = 28.15 s  ClockTime = 52 s  Iteration no 12 (2.03 s)

Mean and max Courant Numbers = 0.0363793 0.299876
deltaT = 2.20021e-07
Time = 0.005002860765

diagonal:  Solving for rho, Initial residual = 0, Final residual = 0, No Iterations 0
diagonal:  Solving for rhoUx, Initial residual = 0, Final residual = 0, No Iterations 0
diagonal:  Solving for rhoUy, Initial residual = 0, Final residual = 0, No Iterations 0
smoothSolver:  Solving for Ux, Initial residual = 6.08705e-05, Final residual = 1.31853e-07, No Iterations 2
smoothSolver:  Solving for Uy, Initial residual = 6.08216e-05, Final residual = 4.33834e-08, No Iterations 2
diagonal:  Solving for rhoE, Initial residual = 0, Final residual = 0, No Iterations 0
smoothSolver:  Solving for e, Initial residual = 0.000102687, Final residual = 8.47599e-08, No Iterations 4
Phase no 1.0  ExecutionTime = 30.14 s  ClockTime = 56 s  Iteration no 13 (1.99 s)

Mean and max Courant Numbers = 0.0363794 0.29988
deltaT = 2.20021e-07
Time = 0.005003080786

diagonal:  Solving for rho, Initial residual = 0, Final residual = 0, No Iterations 0
diagonal:  Solving for rhoUx, Initial residual = 0, Final residual = 0, No Iterations 0
diagonal:  Solving for rhoUy, Initial residual = 0, Final residual = 0, No Iterations 0
smoothSolver:  Solving for Ux, Initial residual = 6.087e-05, Final residual = 1.31852e-07, No Iterations 2
smoothSolver:  Solving for Uy, Initial residual = 6.08222e-05, Final residual = 4.33846e-08, No Iterations 2
diagonal:  Solving for rhoE, Initial residual = 0, Final residual = 0, No Iterations 0
smoothSolver:  Solving for e, Initial residual = 0.000102688, Final residual = 8.47597e-08, No Iterations 4
Phase no 1.0  ExecutionTime = 32.1 s  ClockTime = 60 s  Iteration no 14 (1.96 s)

Mean and max Courant Numbers = 0.0363794 0.299884
deltaT = 2.20021e-07
Time = 0.005003300808

diagonal:  Solving for rho, Initial residual = 0, Final residual = 0, No Iterations 0
diagonal:  Solving for rhoUx, Initial residual = 0, Final residual = 0, No Iterations 0
diagonal:  Solving for rhoUy, Initial residual = 0, Final residual = 0, No Iterations 0
smoothSolver:  Solving for Ux, Initial residual = 6.08696e-05, Final residual = 1.3185e-07, No Iterations 2
smoothSolver:  Solving for Uy, Initial residual = 6.08224e-05, Final residual = 4.33858e-08, No Iterations 2
diagonal:  Solving for rhoE, Initial residual = 0, Final residual = 0, No Iterations 0
smoothSolver:  Solving for e, Initial residual = 0.000102689, Final residual = 8.47595e-08, No Iterations 4
Phase no 1.0  ExecutionTime = 34.06 s  ClockTime = 64 s  Iteration no 15 (1.96 s)

Mean and max Courant Numbers = 0.0363795 0.299888
deltaT = 2.20021e-07
Time = 0.005003520829

diagonal:  Solving for rho, Initial residual = 0, Final residual = 0, No Iterations 0
diagonal:  Solving for rhoUx, Initial residual = 0, Final residual = 0, No Iterations 0
diagonal:  Solving for rhoUy, Initial residual = 0, Final residual = 0, No Iterations 0
smoothSolver:  Solving for Ux, Initial residual = 6.08691e-05, Final residual = 1.31849e-07, No Iterations 2
smoothSolver:  Solving for Uy, Initial residual = 6.08226e-05, Final residual = 4.3387e-08, No Iterations 2
diagonal:  Solving for rhoE, Initial residual = 0, Final residual = 0, No Iterations 0
smoothSolver:  Solving for e, Initial residual = 0.00010269, Final residual = 8.47592e-08, No Iterations 4
Phase no 1.0  ExecutionTime = 36.13 s  ClockTime = 68 s  Iteration no 16 (2.07 s)

Mean and max Courant Numbers = 0.0363796 0.299893
deltaT = 2.20021e-07
Time = 0.005003740851

diagonal:  Solving for rho, Initial residual = 0, Final residual = 0, No Iterations 0
diagonal:  Solving for rhoUx, Initial residual = 0, Final residual = 0, No Iterations 0
diagonal:  Solving for rhoUy, Initial residual = 0, Final residual = 0, No Iterations 0
smoothSolver:  Solving for Ux, Initial residual = 6.08687e-05, Final residual = 1.31848e-07, No Iterations 2
smoothSolver:  Solving for Uy, Initial residual = 6.0823e-05, Final residual = 4.33881e-08, No Iterations 2
diagonal:  Solving for rhoE, Initial residual = 0, Final residual = 0, No Iterations 0
smoothSolver:  Solving for e, Initial residual = 0.00010269, Final residual = 8.47588e-08, No Iterations 4
Phase no 1.0  ExecutionTime = 38.11 s  ClockTime = 72 s  Iteration no 17 (1.98 s)

Mean and max Courant Numbers = 0.0363797 0.299897
deltaT = 2.20021e-07
Time = 0.005003960872

diagonal:  Solving for rho, Initial residual = 0, Final residual = 0, No Iterations 0
diagonal:  Solving for rhoUx, Initial residual = 0, Final residual = 0, No Iterations 0
diagonal:  Solving for rhoUy, Initial residual = 0, Final residual = 0, No Iterations 0
smoothSolver:  Solving for Ux, Initial residual = 6.08682e-05, Final residual = 1.31846e-07, No Iterations 2
smoothSolver:  Solving for Uy, Initial residual = 6.08234e-05, Final residual = 4.33892e-08, No Iterations 2
diagonal:  Solving for rhoE, Initial residual = 0, Final residual = 0, No Iterations 0
smoothSolver:  Solving for e, Initial residual = 0.000102691, Final residual = 8.47584e-08, No Iterations 4
Phase no 1.0  ExecutionTime = 40.13 s  ClockTime = 76 s  Iteration no 18 (2.02 s)

Mean and max Courant Numbers = 0.0363797 0.299901
deltaT = 2.20021e-07
Time = 0.005004180894

diagonal:  Solving for rho, Initial residual = 0, Final residual = 0, No Iterations 0
diagonal:  Solving for rhoUx, Initial residual = 0, Final residual = 0, No Iterations 0
diagonal:  Solving for rhoUy, Initial residual = 0, Final residual = 0, No Iterations 0
smoothSolver:  Solving for Ux, Initial residual = 6.08676e-05, Final residual = 1.31845e-07, No Iterations 2
smoothSolver:  Solving for Uy, Initial residual = 6.08236e-05, Final residual = 4.33904e-08, No Iterations 2
diagonal:  Solving for rhoE, Initial residual = 0, Final residual = 0, No Iterations 0
smoothSolver:  Solving for e, Initial residual = 0.000102692, Final residual = 8.4758e-08, No Iterations 4
Phase no 1.0  ExecutionTime = 42.17 s  ClockTime = 80 s  Iteration no 19 (2.04 s)

Mean and max Courant Numbers = 0.0363798 0.299905
deltaT = 2.20021e-07
Time = 0.005004400915

diagonal:  Solving for rho, Initial residual = 0, Final residual = 0, No Iterations 0
diagonal:  Solving for rhoUx, Initial residual = 0, Final residual = 0, No Iterations 0
diagonal:  Solving for rhoUy, Initial residual = 0, Final residual = 0, No Iterations 0
smoothSolver:  Solving for Ux, Initial residual = 6.08671e-05, Final residual = 1.31843e-07, No Iterations 2
smoothSolver:  Solving for Uy, Initial residual = 6.08236e-05, Final residual = 4.33915e-08, No Iterations 2
diagonal:  Solving for rhoE, Initial residual = 0, Final residual = 0, No Iterations 0
smoothSolver:  Solving for e, Initial residual = 0.000102692, Final residual = 8.47575e-08, No Iterations 4
Phase no 1.0  ExecutionTime = 44.3 s  ClockTime = 83 s  Iteration no 20 (2.13 s)

Mean and max Courant Numbers = 0.0363799 0.299909
deltaT = 2.20021e-07
Time = 0.005004620937

diagonal:  Solving for rho, Initial residual = 0, Final residual = 0, No Iterations 0
diagonal:  Solving for rhoUx, Initial residual = 0, Final residual = 0, No Iterations 0
diagonal:  Solving for rhoUy, Initial residual = 0, Final residual = 0, No Iterations 0
smoothSolver:  Solving for Ux, Initial residual = 6.08666e-05, Final residual = 1.31841e-07, No Iterations 2
smoothSolver:  Solving for Uy, Initial residual = 6.08237e-05, Final residual = 4.33927e-08, No Iterations 2
diagonal:  Solving for rhoE, Initial residual = 0, Final residual = 0, No Iterations 0
smoothSolver:  Solving for e, Initial residual = 0.000102693, Final residual = 8.47571e-08, No Iterations 4
Phase no 1.0  ExecutionTime = 46.69 s  ClockTime = 87 s  Iteration no 21 (2.39 s)

Mean and max Courant Numbers = 0.03638 0.299913
deltaT = 2.20021e-07
Time = 0.005004840958

diagonal:  Solving for rho, Initial residual = 0, Final residual = 0, No Iterations 0
diagonal:  Solving for rhoUx, Initial residual = 0, Final residual = 0, No Iterations 0
diagonal:  Solving for rhoUy, Initial residual = 0, Final residual = 0, No Iterations 0
smoothSolver:  Solving for Ux, Initial residual = 6.08661e-05, Final residual = 1.3184e-07, No Iterations 2
smoothSolver:  Solving for Uy, Initial residual = 6.08238e-05, Final residual = 4.33939e-08, No Iterations 2
diagonal:  Solving for rhoE, Initial residual = 0, Final residual = 0, No Iterations 0
smoothSolver:  Solving for e, Initial residual = 0.000102693, Final residual = 8.47567e-08, No Iterations 4
Phase no 1.0  ExecutionTime = 49.1 s  ClockTime = 91 s  Iteration no 22 (2.41 s)

Mean and max Courant Numbers = 0.03638 0.299917
deltaT = 2.20021e-07
Time = 0.005005060979

diagonal:  Solving for rho, Initial residual = 0, Final residual = 0, No Iterations 0
diagonal:  Solving for rhoUx, Initial residual = 0, Final residual = 0, No Iterations 0
diagonal:  Solving for rhoUy, Initial residual = 0, Final residual = 0, No Iterations 0
smoothSolver:  Solving for Ux, Initial residual = 6.08654e-05, Final residual = 1.31838e-07, No Iterations 2
smoothSolver:  Solving for Uy, Initial residual = 6.08236e-05, Final residual = 4.33951e-08, No Iterations 2
diagonal:  Solving for rhoE, Initial residual = 0, Final residual = 0, No Iterations 0
smoothSolver:  Solving for e, Initial residual = 0.000102694, Final residual = 8.47563e-08, No Iterations 4
Phase no 1.0  ExecutionTime = 51.51 s  ClockTime = 95 s  Iteration no 23 (2.41 s)

Mean and max Courant Numbers = 0.0363801 0.299921
deltaT = 2.20021e-07
Time = 0.005005281001

diagonal:  Solving for rho, Initial residual = 0, Final residual = 0, No Iterations 0
diagonal:  Solving for rhoUx, Initial residual = 0, Final residual = 0, No Iterations 0
diagonal:  Solving for rhoUy, Initial residual = 0, Final residual = 0, No Iterations 0
smoothSolver:  Solving for Ux, Initial residual = 6.08647e-05, Final residual = 1.31837e-07, No Iterations 2
smoothSolver:  Solving for Uy, Initial residual = 6.08233e-05, Final residual = 4.33963e-08, No Iterations 2
diagonal:  Solving for rhoE, Initial residual = 0, Final residual = 0, No Iterations 0
smoothSolver:  Solving for e, Initial residual = 0.000102694, Final residual = 8.47559e-08, No Iterations 4
Phase no 1.0  ExecutionTime = 53.78 s  ClockTime = 98 s  Iteration no 24 (2.27 s)

Mean and max Courant Numbers = 0.0363802 0.299925
deltaT = 2.20021e-07
Time = 0.005005501022

diagonal:  Solving for rho, Initial residual = 0, Final residual = 0, No Iterations 0
diagonal:  Solving for rhoUx, Initial residual = 0, Final residual = 0, No Iterations 0
diagonal:  Solving for rhoUy, Initial residual = 0, Final residual = 0, No Iterations 0
smoothSolver:  Solving for Ux, Initial residual = 6.08641e-05, Final residual = 1.31835e-07, No Iterations 2
smoothSolver:  Solving for Uy, Initial residual = 6.0823e-05, Final residual = 4.33975e-08, No Iterations 2
diagonal:  Solving for rhoE, Initial residual = 0, Final residual = 0, No Iterations 0
smoothSolver:  Solving for e, Initial residual = 0.000102695, Final residual = 8.47555e-08, No Iterations 4
Phase no 1.0  ExecutionTime = 56.13 s  ClockTime = 103 s  Iteration no 25 (2.35 s)

Mean and max Courant Numbers = 0.0363803 0.299929
deltaT = 2.20021e-07
Time = 0.005005721044

diagonal:  Solving for rho, Initial residual = 0, Final residual = 0, No Iterations 0
diagonal:  Solving for rhoUx, Initial residual = 0, Final residual = 0, No Iterations 0
diagonal:  Solving for rhoUy, Initial residual = 0, Final residual = 0, No Iterations 0
smoothSolver:  Solving for Ux, Initial residual = 6.08635e-05, Final residual = 1.31834e-07, No Iterations 2
smoothSolver:  Solving for Uy, Initial residual = 6.0823e-05, Final residual = 4.33987e-08, No Iterations 2
diagonal:  Solving for rhoE, Initial residual = 0, Final residual = 0, No Iterations 0
smoothSolver:  Solving for e, Initial residual = 0.000102695, Final residual = 8.47552e-08, No Iterations 4
Phase no 1.0  ExecutionTime = 58.29 s  ClockTime = 106 s  Iteration no 26 (2.16 s)

Mean and max Courant Numbers = 0.0363803 0.299933
deltaT = 2.20021e-07
Time = 0.005005941065

diagonal:  Solving for rho, Initial residual = 0, Final residual = 0, No Iterations 0
diagonal:  Solving for rhoUx, Initial residual = 0, Final residual = 0, No Iterations 0
diagonal:  Solving for rhoUy, Initial residual = 0, Final residual = 0, No Iterations 0
smoothSolver:  Solving for Ux, Initial residual = 6.08629e-05, Final residual = 1.31832e-07, No Iterations 2
smoothSolver:  Solving for Uy, Initial residual = 6.08229e-05, Final residual = 4.33999e-08, No Iterations 2
diagonal:  Solving for rhoE, Initial residual = 0, Final residual = 0, No Iterations 0
smoothSolver:  Solving for e, Initial residual = 0.000102696, Final residual = 8.47549e-08, No Iterations 4
Phase no 1.0  ExecutionTime = 60.65 s  ClockTime = 110 s  Iteration no 27 (2.36 s)

Mean and max Courant Numbers = 0.0363804 0.299937
deltaT = 2.20021e-07
Time = 0.005006161087

diagonal:  Solving for rho, Initial residual = 0, Final residual = 0, No Iterations 0
diagonal:  Solving for rhoUx, Initial residual = 0, Final residual = 0, No Iterations 0
diagonal:  Solving for rhoUy, Initial residual = 0, Final residual = 0, No Iterations 0
smoothSolver:  Solving for Ux, Initial residual = 6.08623e-05, Final residual = 1.31831e-07, No Iterations 2
smoothSolver:  Solving for Uy, Initial residual = 6.08228e-05, Final residual = 4.34011e-08, No Iterations 2
diagonal:  Solving for rhoE, Initial residual = 0, Final residual = 0, No Iterations 0
smoothSolver:  Solving for e, Initial residual = 0.000102696, Final residual = 8.47547e-08, No Iterations 4
Phase no 1.0  ExecutionTime = 62.89 s  ClockTime = 113 s  Iteration no 28 (2.24 s)

Mean and max Courant Numbers = 0.0363805 0.299941
deltaT = 2.20021e-07
Time = 0.005006381108

diagonal:  Solving for rho, Initial residual = 0, Final residual = 0, No Iterations 0
diagonal:  Solving for rhoUx, Initial residual = 0, Final residual = 0, No Iterations 0
diagonal:  Solving for rhoUy, Initial residual = 0, Final residual = 0, No Iterations 0
smoothSolver:  Solving for Ux, Initial residual = 6.08615e-05, Final residual = 1.3183e-07, No Iterations 2
smoothSolver:  Solving for Uy, Initial residual = 6.0823e-05, Final residual = 4.34023e-08, No Iterations 2
diagonal:  Solving for rhoE, Initial residual = 0, Final residual = 0, No Iterations 0
smoothSolver:  Solving for e, Initial residual = 0.000102696, Final residual = 8.47545e-08, No Iterations 4
Phase no 1.0  ExecutionTime = 65.35 s  ClockTime = 118 s  Iteration no 29 (2.46 s)

Mean and max Courant Numbers = 0.0363806 0.299945
deltaT = 2.20021e-07
Time = 0.00500660113

diagonal:  Solving for rho, Initial residual = 0, Final residual = 0, No Iterations 0
diagonal:  Solving for rhoUx, Initial residual = 0, Final residual = 0, No Iterations 0
diagonal:  Solving for rhoUy, Initial residual = 0, Final residual = 0, No Iterations 0
smoothSolver:  Solving for Ux, Initial residual = 6.08608e-05, Final residual = 1.31828e-07, No Iterations 2
smoothSolver:  Solving for Uy, Initial residual = 6.0823e-05, Final residual = 4.34035e-08, No Iterations 2
diagonal:  Solving for rhoE, Initial residual = 0, Final residual = 0, No Iterations 0
smoothSolver:  Solving for e, Initial residual = 0.000102697, Final residual = 8.47543e-08, No Iterations 4
Phase no 1.0  ExecutionTime = 67.41 s  ClockTime = 121 s  Iteration no 30 (2.06 s)

Mean and max Courant Numbers = 0.0363806 0.299949
deltaT = 2.20021e-07
Time = 0.005006821151

diagonal:  Solving for rho, Initial residual = 0, Final residual = 0, No Iterations 0
diagonal:  Solving for rhoUx, Initial residual = 0, Final residual = 0, No Iterations 0
diagonal:  Solving for rhoUy, Initial residual = 0, Final residual = 0, No Iterations 0
smoothSolver:  Solving for Ux, Initial residual = 6.08601e-05, Final residual = 1.31827e-07, No Iterations 2
smoothSolver:  Solving for Uy, Initial residual = 6.08229e-05, Final residual = 4.34047e-08, No Iterations 2
diagonal:  Solving for rhoE, Initial residual = 0, Final residual = 0, No Iterations 0
smoothSolver:  Solving for e, Initial residual = 0.000102697, Final residual = 8.47541e-08, No Iterations 4
Phase no 1.0  ExecutionTime = 69.6 s  ClockTime = 125 s  Iteration no 31 (2.19 s)

Mean and max Courant Numbers = 0.0363807 0.299953
deltaT = 2.20021e-07
Time = 0.005007041173

diagonal:  Solving for rho, Initial residual = 0, Final residual = 0, No Iterations 0
diagonal:  Solving for rhoUx, Initial residual = 0, Final residual = 0, No Iterations 0
diagonal:  Solving for rhoUy, Initial residual = 0, Final residual = 0, No Iterations 0
smoothSolver:  Solving for Ux, Initial residual = 6.08593e-05, Final residual = 1.31826e-07, No Iterations 2
smoothSolver:  Solving for Uy, Initial residual = 6.08228e-05, Final residual = 4.34058e-08, No Iterations 2
diagonal:  Solving for rhoE, Initial residual = 0, Final residual = 0, No Iterations 0
smoothSolver:  Solving for e, Initial residual = 0.000102697, Final residual = 8.47539e-08, No Iterations 4
Phase no 1.0  ExecutionTime = 71.61 s  ClockTime = 129 s  Iteration no 32 (2.01 s)

Mean and max Courant Numbers = 0.0363808 0.299957
deltaT = 2.20021e-07
Time = 0.005007261194

diagonal:  Solving for rho, Initial residual = 0, Final residual = 0, No Iterations 0
diagonal:  Solving for rhoUx, Initial residual = 0, Final residual = 0, No Iterations 0
diagonal:  Solving for rhoUy, Initial residual = 0, Final residual = 0, No Iterations 0
smoothSolver:  Solving for Ux, Initial residual = 6.08586e-05, Final residual = 1.31824e-07, No Iterations 2
smoothSolver:  Solving for Uy, Initial residual = 6.08227e-05, Final residual = 4.3407e-08, No Iterations 2
diagonal:  Solving for rhoE, Initial residual = 0, Final residual = 0, No Iterations 0
smoothSolver:  Solving for e, Initial residual = 0.000102698, Final residual = 8.47536e-08, No Iterations 4
Phase no 1.0  ExecutionTime = 73.61 s  ClockTime = 133 s  Iteration no 33 (2 s)

Mean and max Courant Numbers = 0.0363809 0.299961
deltaT = 2.20021e-07
Time = 0.005007481216

diagonal:  Solving for rho, Initial residual = 0, Final residual = 0, No Iterations 0
diagonal:  Solving for rhoUx, Initial residual = 0, Final residual = 0, No Iterations 0
diagonal:  Solving for rhoUy, Initial residual = 0, Final residual = 0, No Iterations 0
smoothSolver:  Solving for Ux, Initial residual = 6.08578e-05, Final residual = 1.31823e-07, No Iterations 2
smoothSolver:  Solving for Uy, Initial residual = 6.08224e-05, Final residual = 4.34082e-08, No Iterations 2
diagonal:  Solving for rhoE, Initial residual = 0, Final residual = 0, No Iterations 0
smoothSolver:  Solving for e, Initial residual = 0.000102698, Final residual = 8.47534e-08, No Iterations 4
Phase no 1.0  ExecutionTime = 75.62 s  ClockTime = 136 s  Iteration no 34 (2.01 s)

Mean and max Courant Numbers = 0.0363809 0.299965
deltaT = 2.20021e-07
Time = 0.005007701237

diagonal:  Solving for rho, Initial residual = 0, Final residual = 0, No Iterations 0
diagonal:  Solving for rhoUx, Initial residual = 0, Final residual = 0, No Iterations 0
diagonal:  Solving for rhoUy, Initial residual = 0, Final residual = 0, No Iterations 0
smoothSolver:  Solving for Ux, Initial residual = 6.08571e-05, Final residual = 1.31821e-07, No Iterations 2
smoothSolver:  Solving for Uy, Initial residual = 6.08219e-05, Final residual = 4.34094e-08, No Iterations 2
diagonal:  Solving for rhoE, Initial residual = 0, Final residual = 0, No Iterations 0
smoothSolver:  Solving for e, Initial residual = 0.000102698, Final residual = 8.47532e-08, No Iterations 4
Phase no 1.0  ExecutionTime = 77.7 s  ClockTime = 139 s  Iteration no 35 (2.08 s)

Mean and max Courant Numbers = 0.036381 0.299969
deltaT = 2.20021e-07
Time = 0.005007921259

diagonal:  Solving for rho, Initial residual = 0, Final residual = 0, No Iterations 0
diagonal:  Solving for rhoUx, Initial residual = 0, Final residual = 0, No Iterations 0
diagonal:  Solving for rhoUy, Initial residual = 0, Final residual = 0, No Iterations 0
smoothSolver:  Solving for Ux, Initial residual = 6.08564e-05, Final residual = 1.3182e-07, No Iterations 2
smoothSolver:  Solving for Uy, Initial residual = 6.08215e-05, Final residual = 4.34105e-08, No Iterations 2
diagonal:  Solving for rhoE, Initial residual = 0, Final residual = 0, No Iterations 0
smoothSolver:  Solving for e, Initial residual = 0.000102699, Final residual = 8.47529e-08, No Iterations 4
Phase no 1.0  ExecutionTime = 79.81 s  ClockTime = 142 s  Iteration no 36 (2.1 s)

Mean and max Courant Numbers = 0.0363811 0.299973
deltaT = 2.20021e-07
Time = 0.00500814128

diagonal:  Solving for rho, Initial residual = 0, Final residual = 0, No Iterations 0
diagonal:  Solving for rhoUx, Initial residual = 0, Final residual = 0, No Iterations 0
diagonal:  Solving for rhoUy, Initial residual = 0, Final residual = 0, No Iterations 0
smoothSolver:  Solving for Ux, Initial residual = 6.08557e-05, Final residual = 1.31818e-07, No Iterations 2
smoothSolver:  Solving for Uy, Initial residual = 6.08215e-05, Final residual = 4.34117e-08, No Iterations 2
diagonal:  Solving for rhoE, Initial residual = 0, Final residual = 0, No Iterations 0
smoothSolver:  Solving for e, Initial residual = 0.000102699, Final residual = 8.47527e-08, No Iterations 4
Phase no 1.0  ExecutionTime = 81.99 s  ClockTime = 146 s  Iteration no 37 (2.18 s)

Mean and max Courant Numbers = 0.0363812 0.299977
deltaT = 2.20021e-07
Time = 0.005008361301

diagonal:  Solving for rho, Initial residual = 0, Final residual = 0, No Iterations 0
diagonal:  Solving for rhoUx, Initial residual = 0, Final residual = 0, No Iterations 0
diagonal:  Solving for rhoUy, Initial residual = 0, Final residual = 0, No Iterations 0
smoothSolver:  Solving for Ux, Initial residual = 6.0855e-05, Final residual = 1.31817e-07, No Iterations 2
smoothSolver:  Solving for Uy, Initial residual = 6.08213e-05, Final residual = 4.34129e-08, No Iterations 2
diagonal:  Solving for rhoE, Initial residual = 0, Final residual = 0, No Iterations 0
smoothSolver:  Solving for e, Initial residual = 0.000102699, Final residual = 8.47524e-08, No Iterations 4
Phase no 1.0  ExecutionTime = 83.97 s  ClockTime = 149 s  Iteration no 38 (1.98 s)

Mean and max Courant Numbers = 0.0363812 0.299981
deltaT = 2.20021e-07
Time = 0.005008581323

diagonal:  Solving for rho, Initial residual = 0, Final residual = 0, No Iterations 0
diagonal:  Solving for rhoUx, Initial residual = 0, Final residual = 0, No Iterations 0
diagonal:  Solving for rhoUy, Initial residual = 0, Final residual = 0, No Iterations 0
smoothSolver:  Solving for Ux, Initial residual = 6.08542e-05, Final residual = 1.31815e-07, No Iterations 2
smoothSolver:  Solving for Uy, Initial residual = 6.08211e-05, Final residual = 4.34142e-08, No Iterations 2
diagonal:  Solving for rhoE, Initial residual = 0, Final residual = 0, No Iterations 0
smoothSolver:  Solving for e, Initial residual = 0.0001027, Final residual = 8.47522e-08, No Iterations 4
Phase no 1.0  ExecutionTime = 85.89 s  ClockTime = 152 s  Iteration no 39 (1.92 s)

Mean and max Courant Numbers = 0.0363813 0.299985
deltaT = 2.20021e-07
Time = 0.005008801344

diagonal:  Solving for rho, Initial residual = 0, Final residual = 0, No Iterations 0
diagonal:  Solving for rhoUx, Initial residual = 0, Final residual = 0, No Iterations 0
diagonal:  Solving for rhoUy, Initial residual = 0, Final residual = 0, No Iterations 0
smoothSolver:  Solving for Ux, Initial residual = 6.08534e-05, Final residual = 1.31814e-07, No Iterations 2
smoothSolver:  Solving for Uy, Initial residual = 6.08207e-05, Final residual = 4.34154e-08, No Iterations 2
diagonal:  Solving for rhoE, Initial residual = 0, Final residual = 0, No Iterations 0
smoothSolver:  Solving for e, Initial residual = 0.0001027, Final residual = 8.47519e-08, No Iterations 4
Phase no 1.0  ExecutionTime = 88.09 s  ClockTime = 156 s  Iteration no 40 (2.2 s)

Mean and max Courant Numbers = 0.0363814 0.299989
deltaT = 2.20021e-07
Time = 0.005009021366

diagonal:  Solving for rho, Initial residual = 0, Final residual = 0, No Iterations 0
diagonal:  Solving for rhoUx, Initial residual = 0, Final residual = 0, No Iterations 0
diagonal:  Solving for rhoUy, Initial residual = 0, Final residual = 0, No Iterations 0
smoothSolver:  Solving for Ux, Initial residual = 6.08527e-05, Final residual = 1.31812e-07, No Iterations 2
smoothSolver:  Solving for Uy, Initial residual = 6.082e-05, Final residual = 4.34167e-08, No Iterations 2
diagonal:  Solving for rhoE, Initial residual = 0, Final residual = 0, No Iterations 0
smoothSolver:  Solving for e, Initial residual = 0.0001027, Final residual = 8.47517e-08, No Iterations 4
Phase no 1.0  ExecutionTime = 90.11 s  ClockTime = 160 s  Iteration no 41 (2.02 s)

Mean and max Courant Numbers = 0.0363815 0.299993
deltaT = 2.20021e-07
Time = 0.005009241387

diagonal:  Solving for rho, Initial residual = 0, Final residual = 0, No Iterations 0
diagonal:  Solving for rhoUx, Initial residual = 0, Final residual = 0, No Iterations 0
diagonal:  Solving for rhoUy, Initial residual = 0, Final residual = 0, No Iterations 0
smoothSolver:  Solving for Ux, Initial residual = 6.0852e-05, Final residual = 1.31811e-07, No Iterations 2
smoothSolver:  Solving for Uy, Initial residual = 6.08195e-05, Final residual = 4.3418e-08, No Iterations 2
diagonal:  Solving for rhoE, Initial residual = 0, Final residual = 0, No Iterations 0
smoothSolver:  Solving for e, Initial residual = 0.000102701, Final residual = 8.47514e-08, No Iterations 4
Phase no 1.0  ExecutionTime = 92.48 s  ClockTime = 164 s  Iteration no 42 (2.37 s)

Mean and max Courant Numbers = 0.0363815 0.299997
deltaT = 2.20021e-07
Time = 0.005009461409

diagonal:  Solving for rho, Initial residual = 0, Final residual = 0, No Iterations 0
diagonal:  Solving for rhoUx, Initial residual = 0, Final residual = 0, No Iterations 0
diagonal:  Solving for rhoUy, Initial residual = 0, Final residual = 0, No Iterations 0
smoothSolver:  Solving for Ux, Initial residual = 6.08512e-05, Final residual = 1.31809e-07, No Iterations 2
smoothSolver:  Solving for Uy, Initial residual = 6.08192e-05, Final residual = 4.34192e-08, No Iterations 2
diagonal:  Solving for rhoE, Initial residual = 0, Final residual = 0, No Iterations 0
smoothSolver:  Solving for e, Initial residual = 0.000102701, Final residual = 8.47512e-08, No Iterations 4
Phase no 1.0  ExecutionTime = 94.56 s  ClockTime = 168 s  Iteration no 43 (2.08 s)

Mean and max Courant Numbers = 0.0363816 0.300001
deltaT = 2.20021e-07
Time = 0.00500968143

diagonal:  Solving for rho, Initial residual = 0, Final residual = 0, No Iterations 0
diagonal:  Solving for rhoUx, Initial residual = 0, Final residual = 0, No Iterations 0
diagonal:  Solving for rhoUy, Initial residual = 0, Final residual = 0, No Iterations 0
smoothSolver:  Solving for Ux, Initial residual = 6.08505e-05, Final residual = 1.31808e-07, No Iterations 2
smoothSolver:  Solving for Uy, Initial residual = 6.08191e-05, Final residual = 4.34204e-08, No Iterations 2
diagonal:  Solving for rhoE, Initial residual = 0, Final residual = 0, No Iterations 0
smoothSolver:  Solving for e, Initial residual = 0.000102702, Final residual = 8.4751e-08, No Iterations 4
Phase no 1.0  ExecutionTime = 96.49 s  ClockTime = 172 s  Iteration no 44 (1.93 s)

Mean and max Courant Numbers = 0.0363817 0.300005
deltaT = 2.20021e-07
Time = 0.005009901452

diagonal:  Solving for rho, Initial residual = 0, Final residual = 0, No Iterations 0
diagonal:  Solving for rhoUx, Initial residual = 0, Final residual = 0, No Iterations 0
diagonal:  Solving for rhoUy, Initial residual = 0, Final residual = 0, No Iterations 0
smoothSolver:  Solving for Ux, Initial residual = 6.08498e-05, Final residual = 1.31806e-07, No Iterations 2
smoothSolver:  Solving for Uy, Initial residual = 6.08192e-05, Final residual = 4.34216e-08, No Iterations 2
diagonal:  Solving for rhoE, Initial residual = 0, Final residual = 0, No Iterations 0
smoothSolver:  Solving for e, Initial residual = 0.000102702, Final residual = 8.47508e-08, No Iterations 4
Phase no 1.0  ExecutionTime = 98.82 s  ClockTime = 176 s  Iteration no 45 (2.33 s)

Mean and max Courant Numbers = 0.0363818 0.300009
deltaT = 2.20021e-07
Time = 0.005010121473

diagonal:  Solving for rho, Initial residual = 0, Final residual = 0, No Iterations 0
diagonal:  Solving for rhoUx, Initial residual = 0, Final residual = 0, No Iterations 0
diagonal:  Solving for rhoUy, Initial residual = 0, Final residual = 0, No Iterations 0
smoothSolver:  Solving for Ux, Initial residual = 6.08492e-05, Final residual = 1.31805e-07, No Iterations 2
smoothSolver:  Solving for Uy, Initial residual = 6.08192e-05, Final residual = 4.34228e-08, No Iterations 2
diagonal:  Solving for rhoE, Initial residual = 0, Final residual = 0, No Iterations 0
smoothSolver:  Solving for e, Initial residual = 0.000102702, Final residual = 8.47506e-08, No Iterations 4
Phase no 1.0  ExecutionTime = 101.35 s  ClockTime = 180 s  Iteration no 46 (2.53 s)

Mean and max Courant Numbers = 0.0363818 0.300013
deltaT = 2.20021e-07
Time = 0.005010341495

diagonal:  Solving for rho, Initial residual = 0, Final residual = 0, No Iterations 0
diagonal:  Solving for rhoUx, Initial residual = 0, Final residual = 0, No Iterations 0
diagonal:  Solving for rhoUy, Initial residual = 0, Final residual = 0, No Iterations 0
smoothSolver:  Solving for Ux, Initial residual = 6.08488e-05, Final residual = 1.31803e-07, No Iterations 2
smoothSolver:  Solving for Uy, Initial residual = 6.08191e-05, Final residual = 4.34239e-08, No Iterations 2
diagonal:  Solving for rhoE, Initial residual = 0, Final residual = 0, No Iterations 0
smoothSolver:  Solving for e, Initial residual = 0.000102703, Final residual = 8.47504e-08, No Iterations 4
Phase no 1.0  ExecutionTime = 103.54 s  ClockTime = 184 s  Iteration no 47 (2.19 s)

Mean and max Courant Numbers = 0.0363819 0.300017
deltaT = 2.20021e-07
Time = 0.005010561516

diagonal:  Solving for rho, Initial residual = 0, Final residual = 0, No Iterations 0
diagonal:  Solving for rhoUx, Initial residual = 0, Final residual = 0, No Iterations 0
diagonal:  Solving for rhoUy, Initial residual = 0, Final residual = 0, No Iterations 0
smoothSolver:  Solving for Ux, Initial residual = 6.08485e-05, Final residual = 1.31802e-07, No Iterations 2
smoothSolver:  Solving for Uy, Initial residual = 6.08189e-05, Final residual = 4.3425e-08, No Iterations 2
diagonal:  Solving for rhoE, Initial residual = 0, Final residual = 0, No Iterations 0
smoothSolver:  Solving for e, Initial residual = 0.000102703, Final residual = 8.47502e-08, No Iterations 4
Phase no 1.0  ExecutionTime = 106.05 s  ClockTime = 188 s  Iteration no 48 (2.51 s)

Mean and max Courant Numbers = 0.036382 0.300021
deltaT = 2.20021e-07
Time = 0.005010781538

diagonal:  Solving for rho, Initial residual = 0, Final residual = 0, No Iterations 0
diagonal:  Solving for rhoUx, Initial residual = 0, Final residual = 0, No Iterations 0
diagonal:  Solving for rhoUy, Initial residual = 0, Final residual = 0, No Iterations 0
smoothSolver:  Solving for Ux, Initial residual = 6.08481e-05, Final residual = 1.318e-07, No Iterations 2
smoothSolver:  Solving for Uy, Initial residual = 6.08189e-05, Final residual = 4.34262e-08, No Iterations 2
diagonal:  Solving for rhoE, Initial residual = 0, Final residual = 0, No Iterations 0
smoothSolver:  Solving for e, Initial residual = 0.000102703, Final residual = 8.475e-08, No Iterations 4
Phase no 1.0  ExecutionTime = 108.3 s  ClockTime = 192 s  Iteration no 49 (2.25 s)

Mean and max Courant Numbers = 0.0363821 0.300025
deltaT = 2.20021e-07
Time = 0.005011001559

diagonal:  Solving for rho, Initial residual = 0, Final residual = 0, No Iterations 0
diagonal:  Solving for rhoUx, Initial residual = 0, Final residual = 0, No Iterations 0
diagonal:  Solving for rhoUy, Initial residual = 0, Final residual = 0, No Iterations 0
smoothSolver:  Solving for Ux, Initial residual = 6.08476e-05, Final residual = 1.31799e-07, No Iterations 2
smoothSolver:  Solving for Uy, Initial residual = 6.08187e-05, Final residual = 4.34273e-08, No Iterations 2
diagonal:  Solving for rhoE, Initial residual = 0, Final residual = 0, No Iterations 0
smoothSolver:  Solving for e, Initial residual = 0.000102703, Final residual = 8.47498e-08, No Iterations 4
Phase no 1.0  ExecutionTime = 110.39 s  ClockTime = 195 s  Iteration no 50 (2.09 s)

Mean and max Courant Numbers = 0.0363821 0.300029
deltaT = 2.20021e-07
Time = 0.005011221581

diagonal:  Solving for rho, Initial residual = 0, Final residual = 0, No Iterations 0
diagonal:  Solving for rhoUx, Initial residual = 0, Final residual = 0, No Iterations 0
diagonal:  Solving for rhoUy, Initial residual = 0, Final residual = 0, No Iterations 0
smoothSolver:  Solving for Ux, Initial residual = 6.08471e-05, Final residual = 1.31797e-07, No Iterations 2
smoothSolver:  Solving for Uy, Initial residual = 6.08188e-05, Final residual = 4.34286e-08, No Iterations 2
diagonal:  Solving for rhoE, Initial residual = 0, Final residual = 0, No Iterations 0
smoothSolver:  Solving for e, Initial residual = 0.000102703, Final residual = 8.47496e-08, No Iterations 4
Phase no 1.0  ExecutionTime = 112.5 s  ClockTime = 199 s  Iteration no 51 (2.11 s)

Mean and max Courant Numbers = 0.0363822 0.300033
deltaT = 2.20021e-07
Time = 0.005011441602

diagonal:  Solving for rho, Initial residual = 0, Final residual = 0, No Iterations 0
diagonal:  Solving for rhoUx, Initial residual = 0, Final residual = 0, No Iterations 0
diagonal:  Solving for rhoUy, Initial residual = 0, Final residual = 0, No Iterations 0
smoothSolver:  Solving for Ux, Initial residual = 6.08467e-05, Final residual = 1.31796e-07, No Iterations 2
smoothSolver:  Solving for Uy, Initial residual = 6.08192e-05, Final residual = 4.34298e-08, No Iterations 2
diagonal:  Solving for rhoE, Initial residual = 0, Final residual = 0, No Iterations 0
smoothSolver:  Solving for e, Initial residual = 0.000102704, Final residual = 8.47494e-08, No Iterations 4
Phase no 1.0  ExecutionTime = 115.06 s  ClockTime = 204 s  Iteration no 52 (2.56 s)

Mean and max Courant Numbers = 0.0363823 0.300037
deltaT = 2.20021e-07
Time = 0.005011661623

diagonal:  Solving for rho, Initial residual = 0, Final residual = 0, No Iterations 0
diagonal:  Solving for rhoUx, Initial residual = 0, Final residual = 0, No Iterations 0
diagonal:  Solving for rhoUy, Initial residual = 0, Final residual = 0, No Iterations 0
smoothSolver:  Solving for Ux, Initial residual = 6.08462e-05, Final residual = 1.31794e-07, No Iterations 2
smoothSolver:  Solving for Uy, Initial residual = 6.08197e-05, Final residual = 4.3431e-08, No Iterations 2
diagonal:  Solving for rhoE, Initial residual = 0, Final residual = 0, No Iterations 0
smoothSolver:  Solving for e, Initial residual = 0.000102704, Final residual = 8.47492e-08, No Iterations 4
Phase no 1.0  ExecutionTime = 117.2 s  ClockTime = 208 s  Iteration no 53 (2.14 s)

Mean and max Courant Numbers = 0.0363824 0.300041
deltaT = 2.20021e-07
Time = 0.005011881645

diagonal:  Solving for rho, Initial residual = 0, Final residual = 0, No Iterations 0
diagonal:  Solving for rhoUx, Initial residual = 0, Final residual = 0, No Iterations 0
diagonal:  Solving for rhoUy, Initial residual = 0, Final residual = 0, No Iterations 0
smoothSolver:  Solving for Ux, Initial residual = 6.08457e-05, Final residual = 1.31793e-07, No Iterations 2
smoothSolver:  Solving for Uy, Initial residual = 6.08201e-05, Final residual = 4.34323e-08, No Iterations 2
diagonal:  Solving for rhoE, Initial residual = 0, Final residual = 0, No Iterations 0
smoothSolver:  Solving for e, Initial residual = 0.000102704, Final residual = 8.47489e-08, No Iterations 4
Phase no 1.0  ExecutionTime = 119.59 s  ClockTime = 212 s  Iteration no 54 (2.39 s)

Mean and max Courant Numbers = 0.0363824 0.300044
deltaT = 2.20021e-07
Time = 0.005012101666

diagonal:  Solving for rho, Initial residual = 0, Final residual = 0, No Iterations 0
diagonal:  Solving for rhoUx, Initial residual = 0, Final residual = 0, No Iterations 0
diagonal:  Solving for rhoUy, Initial residual = 0, Final residual = 0, No Iterations 0
smoothSolver:  Solving for Ux, Initial residual = 6.08452e-05, Final residual = 1.31791e-07, No Iterations 2
smoothSolver:  Solving for Uy, Initial residual = 6.08204e-05, Final residual = 4.34336e-08, No Iterations 2
diagonal:  Solving for rhoE, Initial residual = 0, Final residual = 0, No Iterations 0
smoothSolver:  Solving for e, Initial residual = 0.000102705, Final residual = 8.47487e-08, No Iterations 4
Phase no 1.0  ExecutionTime = 121.66 s  ClockTime = 216 s  Iteration no 55 (2.07 s)

Mean and max Courant Numbers = 0.0363825 0.300048
deltaT = 2.20021e-07
Time = 0.005012321688

diagonal:  Solving for rho, Initial residual = 0, Final residual = 0, No Iterations 0
diagonal:  Solving for rhoUx, Initial residual = 0, Final residual = 0, No Iterations 0
diagonal:  Solving for rhoUy, Initial residual = 0, Final residual = 0, No Iterations 0
smoothSolver:  Solving for Ux, Initial residual = 6.08449e-05, Final residual = 1.3179e-07, No Iterations 2
smoothSolver:  Solving for Uy, Initial residual = 6.08205e-05, Final residual = 4.34349e-08, No Iterations 2
diagonal:  Solving for rhoE, Initial residual = 0, Final residual = 0, No Iterations 0
smoothSolver:  Solving for e, Initial residual = 0.000102705, Final residual = 8.47484e-08, No Iterations 4
Phase no 1.0  ExecutionTime = 123.63 s  ClockTime = 220 s  Iteration no 56 (1.97 s)

Mean and max Courant Numbers = 0.0363826 0.300052
deltaT = 2.20021e-07
Time = 0.005012541709

diagonal:  Solving for rho, Initial residual = 0, Final residual = 0, No Iterations 0
diagonal:  Solving for rhoUx, Initial residual = 0, Final residual = 0, No Iterations 0
diagonal:  Solving for rhoUy, Initial residual = 0, Final residual = 0, No Iterations 0
smoothSolver:  Solving for Ux, Initial residual = 6.08446e-05, Final residual = 1.31788e-07, No Iterations 2
smoothSolver:  Solving for Uy, Initial residual = 6.08206e-05, Final residual = 4.34362e-08, No Iterations 2
diagonal:  Solving for rhoE, Initial residual = 0, Final residual = 0, No Iterations 0
smoothSolver:  Solving for e, Initial residual = 0.000102705, Final residual = 8.47482e-08, No Iterations 4
Phase no 1.0  ExecutionTime = 125.63 s  ClockTime = 225 s  Iteration no 57 (1.99 s)

Mean and max Courant Numbers = 0.0363827 0.300056
deltaT = 2.20021e-07
Time = 0.005012761731

diagonal:  Solving for rho, Initial residual = 0, Final residual = 0, No Iterations 0
diagonal:  Solving for rhoUx, Initial residual = 0, Final residual = 0, No Iterations 0
diagonal:  Solving for rhoUy, Initial residual = 0, Final residual = 0, No Iterations 0
smoothSolver:  Solving for Ux, Initial residual = 6.08444e-05, Final residual = 1.31787e-07, No Iterations 2
smoothSolver:  Solving for Uy, Initial residual = 6.08211e-05, Final residual = 4.34374e-08, No Iterations 2
diagonal:  Solving for rhoE, Initial residual = 0, Final residual = 0, No Iterations 0
smoothSolver:  Solving for e, Initial residual = 0.000102705, Final residual = 8.4748e-08, No Iterations 4
Phase no 1.0  ExecutionTime = 127.71 s  ClockTime = 229 s  Iteration no 58 (2.08 s)

Mean and max Courant Numbers = 0.0363828 0.30006
deltaT = 2.20021e-07
Time = 0.005012981752

diagonal:  Solving for rho, Initial residual = 0, Final residual = 0, No Iterations 0
diagonal:  Solving for rhoUx, Initial residual = 0, Final residual = 0, No Iterations 0
diagonal:  Solving for rhoUy, Initial residual = 0, Final residual = 0, No Iterations 0
smoothSolver:  Solving for Ux, Initial residual = 6.08442e-05, Final residual = 1.31785e-07, No Iterations 2
smoothSolver:  Solving for Uy, Initial residual = 6.08217e-05, Final residual = 4.34387e-08, No Iterations 2
diagonal:  Solving for rhoE, Initial residual = 0, Final residual = 0, No Iterations 0
smoothSolver:  Solving for e, Initial residual = 0.000102706, Final residual = 8.47477e-08, No Iterations 4
Phase no 1.0  ExecutionTime = 129.65 s  ClockTime = 233 s  Iteration no 59 (1.94 s)

Mean and max Courant Numbers = 0.0363828 0.300064
deltaT = 2.20021e-07
Time = 0.005013201774

diagonal:  Solving for rho, Initial residual = 0, Final residual = 0, No Iterations 0
diagonal:  Solving for rhoUx, Initial residual = 0, Final residual = 0, No Iterations 0
diagonal:  Solving for rhoUy, Initial residual = 0, Final residual = 0, No Iterations 0
smoothSolver:  Solving for Ux, Initial residual = 6.08442e-05, Final residual = 1.31784e-07, No Iterations 2
smoothSolver:  Solving for Uy, Initial residual = 6.08221e-05, Final residual = 4.344e-08, No Iterations 2
diagonal:  Solving for rhoE, Initial residual = 0, Final residual = 0, No Iterations 0
smoothSolver:  Solving for e, Initial residual = 0.000102706, Final residual = 8.47475e-08, No Iterations 4
Phase no 1.0  ExecutionTime = 131.76 s  ClockTime = 237 s  Iteration no 60 (2.11 s)

Mean and max Courant Numbers = 0.0363829 0.300068
deltaT = 2.20021e-07
Time = 0.005013421795

diagonal:  Solving for rho, Initial residual = 0, Final residual = 0, No Iterations 0
diagonal:  Solving for rhoUx, Initial residual = 0, Final residual = 0, No Iterations 0
diagonal:  Solving for rhoUy, Initial residual = 0, Final residual = 0, No Iterations 0
smoothSolver:  Solving for Ux, Initial residual = 6.08441e-05, Final residual = 1.31782e-07, No Iterations 2
smoothSolver:  Solving for Uy, Initial residual = 6.08228e-05, Final residual = 4.34412e-08, No Iterations 2
diagonal:  Solving for rhoE, Initial residual = 0, Final residual = 0, No Iterations 0
smoothSolver:  Solving for e, Initial residual = 0.000102706, Final residual = 8.47473e-08, No Iterations 4
Phase no 1.0  ExecutionTime = 133.86 s  ClockTime = 240 s  Iteration no 61 (2.1 s)

Mean and max Courant Numbers = 0.036383 0.300072
deltaT = 2.20021e-07
Time = 0.005013641817

diagonal:  Solving for rho, Initial residual = 0, Final residual = 0, No Iterations 0
diagonal:  Solving for rhoUx, Initial residual = 0, Final residual = 0, No Iterations 0
diagonal:  Solving for rhoUy, Initial residual = 0, Final residual = 0, No Iterations 0
smoothSolver:  Solving for Ux, Initial residual = 6.08439e-05, Final residual = 1.31781e-07, No Iterations 2
smoothSolver:  Solving for Uy, Initial residual = 6.08235e-05, Final residual = 4.34424e-08, No Iterations 2
diagonal:  Solving for rhoE, Initial residual = 0, Final residual = 0, No Iterations 0
smoothSolver:  Solving for e, Initial residual = 0.000102707, Final residual = 8.4747e-08, No Iterations 4
Phase no 1.0  ExecutionTime = 136.2 s  ClockTime = 245 s  Iteration no 62 (2.34 s)

Mean and max Courant Numbers = 0.0363831 0.300076
deltaT = 2.20021e-07
Time = 0.005013861838

diagonal:  Solving for rho, Initial residual = 0, Final residual = 0, No Iterations 0
diagonal:  Solving for rhoUx, Initial residual = 0, Final residual = 0, No Iterations 0
diagonal:  Solving for rhoUy, Initial residual = 0, Final residual = 0, No Iterations 0
smoothSolver:  Solving for Ux, Initial residual = 6.08438e-05, Final residual = 1.31779e-07, No Iterations 2
smoothSolver:  Solving for Uy, Initial residual = 6.08243e-05, Final residual = 4.34436e-08, No Iterations 2
diagonal:  Solving for rhoE, Initial residual = 0, Final residual = 0, No Iterations 0
smoothSolver:  Solving for e, Initial residual = 0.000102707, Final residual = 8.47468e-08, No Iterations 4
Phase no 1.0  ExecutionTime = 138.19 s  ClockTime = 248 s  Iteration no 63 (1.99 s)

Mean and max Courant Numbers = 0.0363831 0.30008
deltaT = 2.20021e-07
Time = 0.00501408186

diagonal:  Solving for rho, Initial residual = 0, Final residual = 0, No Iterations 0
diagonal:  Solving for rhoUx, Initial residual = 0, Final residual = 0, No Iterations 0
diagonal:  Solving for rhoUy, Initial residual = 0, Final residual = 0, No Iterations 0
smoothSolver:  Solving for Ux, Initial residual = 6.08437e-05, Final residual = 1.31778e-07, No Iterations 2
smoothSolver:  Solving for Uy, Initial residual = 6.08252e-05, Final residual = 4.34448e-08, No Iterations 2
diagonal:  Solving for rhoE, Initial residual = 0, Final residual = 0, No Iterations 0
smoothSolver:  Solving for e, Initial residual = 0.000102707, Final residual = 8.47466e-08, No Iterations 4
Phase no 1.0  ExecutionTime = 140.13 s  ClockTime = 252 s  Iteration no 64 (1.94 s)

Mean and max Courant Numbers = 0.0363832 0.300084
deltaT = 2.20021e-07
Time = 0.005014301881

diagonal:  Solving for rho, Initial residual = 0, Final residual = 0, No Iterations 0
diagonal:  Solving for rhoUx, Initial residual = 0, Final residual = 0, No Iterations 0
diagonal:  Solving for rhoUy, Initial residual = 0, Final residual = 0, No Iterations 0
smoothSolver:  Solving for Ux, Initial residual = 6.08434e-05, Final residual = 1.31776e-07, No Iterations 2
smoothSolver:  Solving for Uy, Initial residual = 6.08261e-05, Final residual = 4.34459e-08, No Iterations 2
diagonal:  Solving for rhoE, Initial residual = 0, Final residual = 0, No Iterations 0
smoothSolver:  Solving for e, Initial residual = 0.000102708, Final residual = 8.47463e-08, No Iterations 4
Phase no 1.0  ExecutionTime = 142.07 s  ClockTime = 255 s  Iteration no 65 (1.94 s)

Mean and max Courant Numbers = 0.0363833 0.300088
deltaT = 2.20021e-07
Time = 0.005014521903

diagonal:  Solving for rho, Initial residual = 0, Final residual = 0, No Iterations 0
diagonal:  Solving for rhoUx, Initial residual = 0, Final residual = 0, No Iterations 0
diagonal:  Solving for rhoUy, Initial residual = 0, Final residual = 0, No Iterations 0
smoothSolver:  Solving for Ux, Initial residual = 6.08432e-05, Final residual = 1.31775e-07, No Iterations 2
smoothSolver:  Solving for Uy, Initial residual = 6.08269e-05, Final residual = 4.34471e-08, No Iterations 2
diagonal:  Solving for rhoE, Initial residual = 0, Final residual = 0, No Iterations 0
smoothSolver:  Solving for e, Initial residual = 0.000102708, Final residual = 8.47461e-08, No Iterations 4
Phase no 1.0  ExecutionTime = 144.07 s  ClockTime = 259 s  Iteration no 66 (2 s)

Mean and max Courant Numbers = 0.0363834 0.300092
deltaT = 2.20021e-07
Time = 0.005014741924

diagonal:  Solving for rho, Initial residual = 0, Final residual = 0, No Iterations 0
diagonal:  Solving for rhoUx, Initial residual = 0, Final residual = 0, No Iterations 0
diagonal:  Solving for rhoUy, Initial residual = 0, Final residual = 0, No Iterations 0
smoothSolver:  Solving for Ux, Initial residual = 6.08429e-05, Final residual = 1.31773e-07, No Iterations 2
smoothSolver:  Solving for Uy, Initial residual = 6.08278e-05, Final residual = 4.34482e-08, No Iterations 2
diagonal:  Solving for rhoE, Initial residual = 0, Final residual = 0, No Iterations 0
smoothSolver:  Solving for e, Initial residual = 0.000102708, Final residual = 8.47458e-08, No Iterations 4
Phase no 1.0  ExecutionTime = 146.27 s  ClockTime = 262 s  Iteration no 67 (2.2 s)

Mean and max Courant Numbers = 0.0363834 0.300096
deltaT = 2.20021e-07
Time = 0.005014961946

diagonal:  Solving for rho, Initial residual = 0, Final residual = 0, No Iterations 0
diagonal:  Solving for rhoUx, Initial residual = 0, Final residual = 0, No Iterations 0
diagonal:  Solving for rhoUy, Initial residual = 0, Final residual = 0, No Iterations 0
smoothSolver:  Solving for Ux, Initial residual = 6.08428e-05, Final residual = 1.31771e-07, No Iterations 2
smoothSolver:  Solving for Uy, Initial residual = 6.08288e-05, Final residual = 4.34494e-08, No Iterations 2
diagonal:  Solving for rhoE, Initial residual = 0, Final residual = 0, No Iterations 0
smoothSolver:  Solving for e, Initial residual = 0.000102709, Final residual = 8.47456e-08, No Iterations 4
Phase no 1.0  ExecutionTime = 148.21 s  ClockTime = 265 s  Iteration no 68 (1.94 s)

Mean and max Courant Numbers = 0.0363835 0.3001
deltaT = 2.20021e-07
Time = 0.005015181967

diagonal:  Solving for rho, Initial residual = 0, Final residual = 0, No Iterations 0
diagonal:  Solving for rhoUx, Initial residual = 0, Final residual = 0, No Iterations 0
diagonal:  Solving for rhoUy, Initial residual = 0, Final residual = 0, No Iterations 0
smoothSolver:  Solving for Ux, Initial residual = 6.08426e-05, Final residual = 1.3177e-07, No Iterations 2
smoothSolver:  Solving for Uy, Initial residual = 6.08296e-05, Final residual = 4.34505e-08, No Iterations 2
diagonal:  Solving for rhoE, Initial residual = 0, Final residual = 0, No Iterations 0
smoothSolver:  Solving for e, Initial residual = 0.000102709, Final residual = 8.47453e-08, No Iterations 4
Phase no 1.0  ExecutionTime = 150.17 s  ClockTime = 268 s  Iteration no 69 (1.96 s)

Mean and max Courant Numbers = 0.0363836 0.300104
deltaT = 2.20021e-07
Time = 0.005015401988

diagonal:  Solving for rho, Initial residual = 0, Final residual = 0, No Iterations 0
diagonal:  Solving for rhoUx, Initial residual = 0, Final residual = 0, No Iterations 0
diagonal:  Solving for rhoUy, Initial residual = 0, Final residual = 0, No Iterations 0
smoothSolver:  Solving for Ux, Initial residual = 6.08424e-05, Final residual = 1.31768e-07, No Iterations 2
smoothSolver:  Solving for Uy, Initial residual = 6.08303e-05, Final residual = 4.34517e-08, No Iterations 2
diagonal:  Solving for rhoE, Initial residual = 0, Final residual = 0, No Iterations 0
smoothSolver:  Solving for e, Initial residual = 0.000102709, Final residual = 8.47451e-08, No Iterations 4
Phase no 1.0  ExecutionTime = 152.21 s  ClockTime = 271 s  Iteration no 70 (2.04 s)

Mean and max Courant Numbers = 0.0363837 0.300108
deltaT = 2.20021e-07
Time = 0.00501562201

diagonal:  Solving for rho, Initial residual = 0, Final residual = 0, No Iterations 0
diagonal:  Solving for rhoUx, Initial residual = 0, Final residual = 0, No Iterations 0
diagonal:  Solving for rhoUy, Initial residual = 0, Final residual = 0, No Iterations 0
smoothSolver:  Solving for Ux, Initial residual = 6.08423e-05, Final residual = 1.31767e-07, No Iterations 2
smoothSolver:  Solving for Uy, Initial residual = 6.0831e-05, Final residual = 4.34529e-08, No Iterations 2
diagonal:  Solving for rhoE, Initial residual = 0, Final residual = 0, No Iterations 0
smoothSolver:  Solving for e, Initial residual = 0.00010271, Final residual = 8.47448e-08, No Iterations 4
Phase no 1.0  ExecutionTime = 154.19 s  ClockTime = 274 s  Iteration no 71 (1.98 s)

Mean and max Courant Numbers = 0.0363838 0.300112
deltaT = 2.20021e-07
Time = 0.005015842031

diagonal:  Solving for rho, Initial residual = 0, Final residual = 0, No Iterations 0
diagonal:  Solving for rhoUx, Initial residual = 0, Final residual = 0, No Iterations 0
diagonal:  Solving for rhoUy, Initial residual = 0, Final residual = 0, No Iterations 0
smoothSolver:  Solving for Ux, Initial residual = 6.0842e-05, Final residual = 1.31765e-07, No Iterations 2
smoothSolver:  Solving for Uy, Initial residual = 6.08316e-05, Final residual = 4.34541e-08, No Iterations 2
diagonal:  Solving for rhoE, Initial residual = 0, Final residual = 0, No Iterations 0
smoothSolver:  Solving for e, Initial residual = 0.00010271, Final residual = 8.47446e-08, No Iterations 4
Phase no 1.0  ExecutionTime = 156.19 s  ClockTime = 277 s  Iteration no 72 (2 s)

Mean and max Courant Numbers = 0.0363838 0.300116
deltaT = 2.20021e-07
Time = 0.005016062053

diagonal:  Solving for rho, Initial residual = 0, Final residual = 0, No Iterations 0
diagonal:  Solving for rhoUx, Initial residual = 0, Final residual = 0, No Iterations 0
diagonal:  Solving for rhoUy, Initial residual = 0, Final residual = 0, No Iterations 0
smoothSolver:  Solving for Ux, Initial residual = 6.08417e-05, Final residual = 1.31764e-07, No Iterations 2
smoothSolver:  Solving for Uy, Initial residual = 6.08322e-05, Final residual = 4.34553e-08, No Iterations 2
diagonal:  Solving for rhoE, Initial residual = 0, Final residual = 0, No Iterations 0
smoothSolver:  Solving for e, Initial residual = 0.000102711, Final residual = 8.47443e-08, No Iterations 4
Phase no 1.0  ExecutionTime = 158.18 s  ClockTime = 280 s  Iteration no 73 (1.99 s)

Mean and max Courant Numbers = 0.0363839 0.30012
deltaT = 2.20021e-07
Time = 0.005016282074

diagonal:  Solving for rho, Initial residual = 0, Final residual = 0, No Iterations 0
diagonal:  Solving for rhoUx, Initial residual = 0, Final residual = 0, No Iterations 0
diagonal:  Solving for rhoUy, Initial residual = 0, Final residual = 0, No Iterations 0
smoothSolver:  Solving for Ux, Initial residual = 6.08414e-05, Final residual = 1.31762e-07, No Iterations 2
smoothSolver:  Solving for Uy, Initial residual = 6.08328e-05, Final residual = 4.34565e-08, No Iterations 2
diagonal:  Solving for rhoE, Initial residual = 0, Final residual = 0, No Iterations 0
smoothSolver:  Solving for e, Initial residual = 0.000102711, Final residual = 8.47441e-08, No Iterations 4
Phase no 1.0  ExecutionTime = 160.31 s  ClockTime = 283 s  Iteration no 74 (2.13 s)

Mean and max Courant Numbers = 0.036384 0.300124
deltaT = 2.20021e-07
Time = 0.005016502096

diagonal:  Solving for rho, Initial residual = 0, Final residual = 0, No Iterations 0
diagonal:  Solving for rhoUx, Initial residual = 0, Final residual = 0, No Iterations 0
diagonal:  Solving for rhoUy, Initial residual = 0, Final residual = 0, No Iterations 0
smoothSolver:  Solving for Ux, Initial residual = 6.08412e-05, Final residual = 1.31761e-07, No Iterations 2
smoothSolver:  Solving for Uy, Initial residual = 6.08337e-05, Final residual = 4.34577e-08, No Iterations 2
diagonal:  Solving for rhoE, Initial residual = 0, Final residual = 0, No Iterations 0
smoothSolver:  Solving for e, Initial residual = 0.000102712, Final residual = 8.47438e-08, No Iterations 4
Phase no 1.0  ExecutionTime = 162.45 s  ClockTime = 286 s  Iteration no 75 (2.14 s)

Mean and max Courant Numbers = 0.0363841 0.300128
deltaT = 2.20021e-07
Time = 0.005016722117

diagonal:  Solving for rho, Initial residual = 0, Final residual = 0, No Iterations 0
diagonal:  Solving for rhoUx, Initial residual = 0, Final residual = 0, No Iterations 0
diagonal:  Solving for rhoUy, Initial residual = 0, Final residual = 0, No Iterations 0
smoothSolver:  Solving for Ux, Initial residual = 6.0841e-05, Final residual = 1.31759e-07, No Iterations 2
smoothSolver:  Solving for Uy, Initial residual = 6.08344e-05, Final residual = 4.3459e-08, No Iterations 2
diagonal:  Solving for rhoE, Initial residual = 0, Final residual = 0, No Iterations 0
smoothSolver:  Solving for e, Initial residual = 0.000102712, Final residual = 8.47435e-08, No Iterations 4
Phase no 1.0  ExecutionTime = 164.63 s  ClockTime = 290 s  Iteration no 76 (2.18 s)

Mean and max Courant Numbers = 0.0363841 0.300131
deltaT = 2.20021e-07
Time = 0.005016942139

diagonal:  Solving for rho, Initial residual = 0, Final residual = 0, No Iterations 0
diagonal:  Solving for rhoUx, Initial residual = 0, Final residual = 0, No Iterations 0
diagonal:  Solving for rhoUy, Initial residual = 0, Final residual = 0, No Iterations 0
smoothSolver:  Solving for Ux, Initial residual = 6.08408e-05, Final residual = 1.31758e-07, No Iterations 2
smoothSolver:  Solving for Uy, Initial residual = 6.08352e-05, Final residual = 4.34602e-08, No Iterations 2
diagonal:  Solving for rhoE, Initial residual = 0, Final residual = 0, No Iterations 0
smoothSolver:  Solving for e, Initial residual = 0.000102713, Final residual = 8.47433e-08, No Iterations 4
Phase no 1.0  ExecutionTime = 166.9 s  ClockTime = 293 s  Iteration no 77 (2.27 s)

Mean and max Courant Numbers = 0.0363842 0.300135
deltaT = 2.20021e-07
Time = 0.00501716216

diagonal:  Solving for rho, Initial residual = 0, Final residual = 0, No Iterations 0
diagonal:  Solving for rhoUx, Initial residual = 0, Final residual = 0, No Iterations 0
diagonal:  Solving for rhoUy, Initial residual = 0, Final residual = 0, No Iterations 0
smoothSolver:  Solving for Ux, Initial residual = 6.08406e-05, Final residual = 1.31756e-07, No Iterations 2
smoothSolver:  Solving for Uy, Initial residual = 6.08359e-05, Final residual = 4.34614e-08, No Iterations 2
diagonal:  Solving for rhoE, Initial residual = 0, Final residual = 0, No Iterations 0
smoothSolver:  Solving for e, Initial residual = 0.000102714, Final residual = 8.4743e-08, No Iterations 4
Phase no 1.0  ExecutionTime = 169 s  ClockTime = 296 s  Iteration no 78 (2.1 s)

Mean and max Courant Numbers = 0.0363843 0.300139
deltaT = 2.20021e-07
Time = 0.005017382182

diagonal:  Solving for rho, Initial residual = 0, Final residual = 0, No Iterations 0
diagonal:  Solving for rhoUx, Initial residual = 0, Final residual = 0, No Iterations 0
diagonal:  Solving for rhoUy, Initial residual = 0, Final residual = 0, No Iterations 0
smoothSolver:  Solving for Ux, Initial residual = 6.08404e-05, Final residual = 1.31755e-07, No Iterations 2
smoothSolver:  Solving for Uy, Initial residual = 6.08366e-05, Final residual = 4.34626e-08, No Iterations 2
diagonal:  Solving for rhoE, Initial residual = 0, Final residual = 0, No Iterations 0
smoothSolver:  Solving for e, Initial residual = 0.000102714, Final residual = 8.47428e-08, No Iterations 4
Phase no 1.0  ExecutionTime = 171.05 s  ClockTime = 299 s  Iteration no 79 (2.05 s)

Mean and max Courant Numbers = 0.0363844 0.300143
deltaT = 2.20021e-07
Time = 0.005017602203

diagonal:  Solving for rho, Initial residual = 0, Final residual = 0, No Iterations 0
diagonal:  Solving for rhoUx, Initial residual = 0, Final residual = 0, No Iterations 0
diagonal:  Solving for rhoUy, Initial residual = 0, Final residual = 0, No Iterations 0
smoothSolver:  Solving for Ux, Initial residual = 6.08402e-05, Final residual = 1.31753e-07, No Iterations 2
smoothSolver:  Solving for Uy, Initial residual = 6.08373e-05, Final residual = 4.34637e-08, No Iterations 2
diagonal:  Solving for rhoE, Initial residual = 0, Final residual = 0, No Iterations 0
smoothSolver:  Solving for e, Initial residual = 0.000102715, Final residual = 8.47425e-08, No Iterations 4
Phase no 1.0  ExecutionTime = 173.1 s  ClockTime = 303 s  Iteration no 80 (2.05 s)

Mean and max Courant Numbers = 0.0363844 0.300147
deltaT = 2.20021e-07
Time = 0.005017822225

diagonal:  Solving for rho, Initial residual = 0, Final residual = 0, No Iterations 0
diagonal:  Solving for rhoUx, Initial residual = 0, Final residual = 0, No Iterations 0
diagonal:  Solving for rhoUy, Initial residual = 0, Final residual = 0, No Iterations 0
smoothSolver:  Solving for Ux, Initial residual = 6.084e-05, Final residual = 1.31752e-07, No Iterations 2
smoothSolver:  Solving for Uy, Initial residual = 6.08378e-05, Final residual = 4.34649e-08, No Iterations 2
diagonal:  Solving for rhoE, Initial residual = 0, Final residual = 0, No Iterations 0
smoothSolver:  Solving for e, Initial residual = 0.000102715, Final residual = 8.47423e-08, No Iterations 4
Phase no 1.0  ExecutionTime = 175.16 s  ClockTime = 306 s  Iteration no 81 (2.06 s)

Mean and max Courant Numbers = 0.0363845 0.300151
deltaT = 2.20021e-07
Time = 0.005018042246

diagonal:  Solving for rho, Initial residual = 0, Final residual = 0, No Iterations 0
diagonal:  Solving for rhoUx, Initial residual = 0, Final residual = 0, No Iterations 0
diagonal:  Solving for rhoUy, Initial residual = 0, Final residual = 0, No Iterations 0
smoothSolver:  Solving for Ux, Initial residual = 6.08396e-05, Final residual = 1.3175e-07, No Iterations 2
smoothSolver:  Solving for Uy, Initial residual = 6.08383e-05, Final residual = 4.34661e-08, No Iterations 2
diagonal:  Solving for rhoE, Initial residual = 0, Final residual = 0, No Iterations 0
smoothSolver:  Solving for e, Initial residual = 0.000102716, Final residual = 8.4742e-08, No Iterations 4
Phase no 1.0  ExecutionTime = 177.26 s  ClockTime = 309 s  Iteration no 82 (2.1 s)

Mean and max Courant Numbers = 0.0363846 0.300155
deltaT = 2.20021e-07
Time = 0.005018262268

diagonal:  Solving for rho, Initial residual = 0, Final residual = 0, No Iterations 0
diagonal:  Solving for rhoUx, Initial residual = 0, Final residual = 0, No Iterations 0
diagonal:  Solving for rhoUy, Initial residual = 0, Final residual = 0, No Iterations 0
smoothSolver:  Solving for Ux, Initial residual = 6.08393e-05, Final residual = 1.31749e-07, No Iterations 2
smoothSolver:  Solving for Uy, Initial residual = 6.08386e-05, Final residual = 4.34673e-08, No Iterations 2
diagonal:  Solving for rhoE, Initial residual = 0, Final residual = 0, No Iterations 0
smoothSolver:  Solving for e, Initial residual = 0.000102717, Final residual = 8.47418e-08, No Iterations 4
Phase no 1.0  ExecutionTime = 179.3 s  ClockTime = 312 s  Iteration no 83 (2.04 s)

Mean and max Courant Numbers = 0.0363847 0.300159
deltaT = 2.20021e-07
Time = 0.005018482289

diagonal:  Solving for rho, Initial residual = 0, Final residual = 0, No Iterations 0
diagonal:  Solving for rhoUx, Initial residual = 0, Final residual = 0, No Iterations 0
diagonal:  Solving for rhoUy, Initial residual = 0, Final residual = 0, No Iterations 0
smoothSolver:  Solving for Ux, Initial residual = 6.08391e-05, Final residual = 1.31747e-07, No Iterations 2
smoothSolver:  Solving for Uy, Initial residual = 6.08393e-05, Final residual = 4.34686e-08, No Iterations 2
diagonal:  Solving for rhoE, Initial residual = 0, Final residual = 0, No Iterations 0
smoothSolver:  Solving for e, Initial residual = 0.000102718, Final residual = 8.47415e-08, No Iterations 4
Phase no 1.0  ExecutionTime = 181.52 s  ClockTime = 315 s  Iteration no 84 (2.22 s)

Mean and max Courant Numbers = 0.0363848 0.300163
deltaT = 2.20021e-07
Time = 0.00501870231

diagonal:  Solving for rho, Initial residual = 0, Final residual = 0, No Iterations 0
diagonal:  Solving for rhoUx, Initial residual = 0, Final residual = 0, No Iterations 0
diagonal:  Solving for rhoUy, Initial residual = 0, Final residual = 0, No Iterations 0
smoothSolver:  Solving for Ux, Initial residual = 6.08388e-05, Final residual = 1.31746e-07, No Iterations 2
smoothSolver:  Solving for Uy, Initial residual = 6.08403e-05, Final residual = 4.34698e-08, No Iterations 2
diagonal:  Solving for rhoE, Initial residual = 0, Final residual = 0, No Iterations 0
smoothSolver:  Solving for e, Initial residual = 0.000102719, Final residual = 8.47413e-08, No Iterations 4
Phase no 1.0  ExecutionTime = 183.46 s  ClockTime = 318 s  Iteration no 85 (1.94 s)

Mean and max Courant Numbers = 0.0363848 0.300167
deltaT = 2.20021e-07
Time = 0.005018922332

diagonal:  Solving for rho, Initial residual = 0, Final residual = 0, No Iterations 0
diagonal:  Solving for rhoUx, Initial residual = 0, Final residual = 0, No Iterations 0
diagonal:  Solving for rhoUy, Initial residual = 0, Final residual = 0, No Iterations 0
smoothSolver:  Solving for Ux, Initial residual = 6.08385e-05, Final residual = 1.31744e-07, No Iterations 2
smoothSolver:  Solving for Uy, Initial residual = 6.08413e-05, Final residual = 4.3471e-08, No Iterations 2
diagonal:  Solving for rhoE, Initial residual = 0, Final residual = 0, No Iterations 0
smoothSolver:  Solving for e, Initial residual = 0.00010272, Final residual = 8.4741e-08, No Iterations 4
Phase no 1.0  ExecutionTime = 185.66 s  ClockTime = 321 s  Iteration no 86 (2.2 s)

Mean and max Courant Numbers = 0.0363849 0.300171
deltaT = 2.20021e-07
Time = 0.005019142353

diagonal:  Solving for rho, Initial residual = 0, Final residual = 0, No Iterations 0
diagonal:  Solving for rhoUx, Initial residual = 0, Final residual = 0, No Iterations 0
diagonal:  Solving for rhoUy, Initial residual = 0, Final residual = 0, No Iterations 0
smoothSolver:  Solving for Ux, Initial residual = 6.08382e-05, Final residual = 1.31743e-07, No Iterations 2
smoothSolver:  Solving for Uy, Initial residual = 6.08424e-05, Final residual = 4.34723e-08, No Iterations 2
diagonal:  Solving for rhoE, Initial residual = 0, Final residual = 0, No Iterations 0
smoothSolver:  Solving for e, Initial residual = 0.000102722, Final residual = 8.47407e-08, No Iterations 4
Phase no 1.0  ExecutionTime = 187.61 s  ClockTime = 324 s  Iteration no 87 (1.95 s)

Mean and max Courant Numbers = 0.036385 0.300175
deltaT = 2.20021e-07
Time = 0.005019362375

diagonal:  Solving for rho, Initial residual = 0, Final residual = 0, No Iterations 0
diagonal:  Solving for rhoUx, Initial residual = 0, Final residual = 0, No Iterations 0
diagonal:  Solving for rhoUy, Initial residual = 0, Final residual = 0, No Iterations 0
smoothSolver:  Solving for Ux, Initial residual = 6.0838e-05, Final residual = 1.31741e-07, No Iterations 2
smoothSolver:  Solving for Uy, Initial residual = 6.08432e-05, Final residual = 4.34735e-08, No Iterations 2
diagonal:  Solving for rhoE, Initial residual = 0, Final residual = 0, No Iterations 0
smoothSolver:  Solving for e, Initial residual = 0.000102723, Final residual = 8.47404e-08, No Iterations 4
Phase no 1.0  ExecutionTime = 189.83 s  ClockTime = 327 s  Iteration no 88 (2.22 s)

Mean and max Courant Numbers = 0.0363851 0.300179
deltaT = 2.20021e-07
Time = 0.005019582396

diagonal:  Solving for rho, Initial residual = 0, Final residual = 0, No Iterations 0
diagonal:  Solving for rhoUx, Initial residual = 0, Final residual = 0, No Iterations 0
diagonal:  Solving for rhoUy, Initial residual = 0, Final residual = 0, No Iterations 0
smoothSolver:  Solving for Ux, Initial residual = 6.08378e-05, Final residual = 1.3174e-07, No Iterations 2
smoothSolver:  Solving for Uy, Initial residual = 6.0844e-05, Final residual = 4.34747e-08, No Iterations 2
diagonal:  Solving for rhoE, Initial residual = 0, Final residual = 0, No Iterations 0
smoothSolver:  Solving for e, Initial residual = 0.000102724, Final residual = 8.474e-08, No Iterations 4
Phase no 1.0  ExecutionTime = 191.81 s  ClockTime = 331 s  Iteration no 89 (1.98 s)

Mean and max Courant Numbers = 0.0363851 0.300183
deltaT = 2.20021e-07
Time = 0.005019802418

diagonal:  Solving for rho, Initial residual = 0, Final residual = 0, No Iterations 0
diagonal:  Solving for rhoUx, Initial residual = 0, Final residual = 0, No Iterations 0
diagonal:  Solving for rhoUy, Initial residual = 0, Final residual = 0, No Iterations 0
smoothSolver:  Solving for Ux, Initial residual = 6.08377e-05, Final residual = 1.31738e-07, No Iterations 2
smoothSolver:  Solving for Uy, Initial residual = 6.08445e-05, Final residual = 4.34758e-08, No Iterations 2
diagonal:  Solving for rhoE, Initial residual = 0, Final residual = 0, No Iterations 0
smoothSolver:  Solving for e, Initial residual = 0.000102725, Final residual = 8.47397e-08, No Iterations 4
Phase no 1.0  ExecutionTime = 193.88 s  ClockTime = 334 s  Iteration no 90 (2.07 s)

Mean and max Courant Numbers = 0.0363852 0.300187
deltaT = 2.19753e-07
Time = 0.005020022171

diagonal:  Solving for rho, Initial residual = 0, Final residual = 0, No Iterations 0
diagonal:  Solving for rhoUx, Initial residual = 0, Final residual = 0, No Iterations 0
diagonal:  Solving for rhoUy, Initial residual = 0, Final residual = 0, No Iterations 0
smoothSolver:  Solving for Ux, Initial residual = 6.07605e-05, Final residual = 1.31245e-07, No Iterations 2
smoothSolver:  Solving for Uy, Initial residual = 6.07693e-05, Final residual = 4.33185e-08, No Iterations 2
[...]
diagonal:  Solving for rhoUx, Initial residual = 0, Final residual = 0, No Iterations 0
diagonal:  Solving for rhoUy, Initial residual = 0, Final residual = 0, No Iterations 0
smoothSolver:  Solving for Ux, Initial residual = 5.7439e-05, Final residual = 1.14458e-07, No Iterations 2
smoothSolver:  Solving for Uy, Initial residual = 5.8546e-05, Final residual = 4.2132e-08, No Iterations 2
diagonal:  Solving for rhoE, Initial residual = 0, Final residual = 0, No Iterations 0
smoothSolver:  Solving for e, Initial residual = 9.84173e-05, Final residual = 7.29265e-08, No Iterations 4
Phase no 1.0  ExecutionTime = 9608.97 s  ClockTime = 13503 s  Iteration no 4637 (1.92 s)

Mean and max Courant Numbers = 0.0351415 0.301028
deltaT = 2.10531e-07
Time = 0.005995578847

diagonal:  Solving for rho, Initial residual = 0, Final residual = 0, No Iterations 0
diagonal:  Solving for rhoUx, Initial residual = 0, Final residual = 0, No Iterations 0
diagonal:  Solving for rhoUy, Initial residual = 0, Final residual = 0, No Iterations 0
smoothSolver:  Solving for Ux, Initial residual = 5.74386e-05, Final residual = 1.14456e-07, No Iterations 2
smoothSolver:  Solving for Uy, Initial residual = 5.85456e-05, Final residual = 4.21324e-08, No Iterations 2
diagonal:  Solving for rhoE, Initial residual = 0, Final residual = 0, No Iterations 0
smoothSolver:  Solving for e, Initial residual = 9.84174e-05, Final residual = 7.29262e-08, No Iterations 4
Phase no 1.0  ExecutionTime = 9610.91 s  ClockTime = 13505 s  Iteration no 4638 (1.94 s)

Mean and max Courant Numbers = 0.0351416 0.301031
deltaT = 2.10531e-07
Time = 0.005995789378

diagonal:  Solving for rho, Initial residual = 0, Final residual = 0, No Iterations 0
diagonal:  Solving for rhoUx, Initial residual = 0, Final residual = 0, No Iterations 0
diagonal:  Solving for rhoUy, Initial residual = 0, Final residual = 0, No Iterations 0
smoothSolver:  Solving for Ux, Initial residual = 5.74381e-05, Final residual = 1.14453e-07, No Iterations 2
smoothSolver:  Solving for Uy, Initial residual = 5.85452e-05, Final residual = 4.21329e-08, No Iterations 2
diagonal:  Solving for rhoE, Initial residual = 0, Final residual = 0, No Iterations 0
smoothSolver:  Solving for e, Initial residual = 9.84176e-05, Final residual = 7.29259e-08, No Iterations 4
Phase no 1.0  ExecutionTime = 9612.74 s  ClockTime = 13507 s  Iteration no 4639 (1.83 s)

Mean and max Courant Numbers = 0.0351416 0.301033
deltaT = 2.10531e-07
Time = 0.005995999909

diagonal:  Solving for rho, Initial residual = 0, Final residual = 0, No Iterations 0
diagonal:  Solving for rhoUx, Initial residual = 0, Final residual = 0, No Iterations 0
diagonal:  Solving for rhoUy, Initial residual = 0, Final residual = 0, No Iterations 0
smoothSolver:  Solving for Ux, Initial residual = 5.74376e-05, Final residual = 1.1445e-07, No Iterations 2
smoothSolver:  Solving for Uy, Initial residual = 5.85452e-05, Final residual = 4.21333e-08, No Iterations 2
diagonal:  Solving for rhoE, Initial residual = 0, Final residual = 0, No Iterations 0
smoothSolver:  Solving for e, Initial residual = 9.84177e-05, Final residual = 7.29256e-08, No Iterations 4
Phase no 1.0  ExecutionTime = 9614.63 s  ClockTime = 13509 s  Iteration no 4640 (1.89 s)

Mean and max Courant Numbers = 0.0351417 0.301035
deltaT = 2.10531e-07
Time = 0.00599621044

diagonal:  Solving for rho, Initial residual = 0, Final residual = 0, No Iterations 0
diagonal:  Solving for rhoUx, Initial residual = 0, Final residual = 0, No Iterations 0
diagonal:  Solving for rhoUy, Initial residual = 0, Final residual = 0, No Iterations 0
smoothSolver:  Solving for Ux, Initial residual = 5.74371e-05, Final residual = 1.14447e-07, No Iterations 2
smoothSolver:  Solving for Uy, Initial residual = 5.85452e-05, Final residual = 4.21337e-08, No Iterations 2
diagonal:  Solving for rhoE, Initial residual = 0, Final residual = 0, No Iterations 0
smoothSolver:  Solving for e, Initial residual = 9.84178e-05, Final residual = 7.29251e-08, No Iterations 4
Phase no 1.0  ExecutionTime = 9616.52 s  ClockTime = 13510 s  Iteration no 4641 (1.89 s)

Mean and max Courant Numbers = 0.0351418 0.301038
deltaT = 2.10531e-07
Time = 0.005996420971

diagonal:  Solving for rho, Initial residual = 0, Final residual = 0, No Iterations 0
diagonal:  Solving for rhoUx, Initial residual = 0, Final residual = 0, No Iterations 0
diagonal:  Solving for rhoUy, Initial residual = 0, Final residual = 0, No Iterations 0
smoothSolver:  Solving for Ux, Initial residual = 5.74366e-05, Final residual = 1.14445e-07, No Iterations 2
smoothSolver:  Solving for Uy, Initial residual = 5.85451e-05, Final residual = 4.21341e-08, No Iterations 2
diagonal:  Solving for rhoE, Initial residual = 0, Final residual = 0, No Iterations 0
smoothSolver:  Solving for e, Initial residual = 9.84178e-05, Final residual = 7.29246e-08, No Iterations 4
Phase no 1.0  ExecutionTime = 9618.41 s  ClockTime = 13512 s  Iteration no 4642 (1.89 s)

Mean and max Courant Numbers = 0.0351419 0.30104
deltaT = 2.10531e-07
Time = 0.005996631502

diagonal:  Solving for rho, Initial residual = 0, Final residual = 0, No Iterations 0
diagonal:  Solving for rhoUx, Initial residual = 0, Final residual = 0, No Iterations 0
diagonal:  Solving for rhoUy, Initial residual = 0, Final residual = 0, No Iterations 0
smoothSolver:  Solving for Ux, Initial residual = 5.74359e-05, Final residual = 1.14442e-07, No Iterations 2
smoothSolver:  Solving for Uy, Initial residual = 5.8545e-05, Final residual = 4.21345e-08, No Iterations 2
diagonal:  Solving for rhoE, Initial residual = 0, Final residual = 0, No Iterations 0
smoothSolver:  Solving for e, Initial residual = 9.84178e-05, Final residual = 7.29241e-08, No Iterations 4
Phase no 1.0  ExecutionTime = 9620.29 s  ClockTime = 13514 s  Iteration no 4643 (1.88 s)

Mean and max Courant Numbers = 0.0351419 0.301042
deltaT = 2.10531e-07
Time = 0.005996842033

diagonal:  Solving for rho, Initial residual = 0, Final residual = 0, No Iterations 0
diagonal:  Solving for rhoUx, Initial residual = 0, Final residual = 0, No Iterations 0
diagonal:  Solving for rhoUy, Initial residual = 0, Final residual = 0, No Iterations 0
smoothSolver:  Solving for Ux, Initial residual = 5.74352e-05, Final residual = 1.14439e-07, No Iterations 2
smoothSolver:  Solving for Uy, Initial residual = 5.8545e-05, Final residual = 4.21349e-08, No Iterations 2
diagonal:  Solving for rhoE, Initial residual = 0, Final residual = 0, No Iterations 0
smoothSolver:  Solving for e, Initial residual = 9.84177e-05, Final residual = 7.29236e-08, No Iterations 4
Phase no 1.0  ExecutionTime = 9622.2 s  ClockTime = 13516 s  Iteration no 4644 (1.91 s)

Mean and max Courant Numbers = 0.035142 0.301044
deltaT = 2.10531e-07
Time = 0.005997052565

diagonal:  Solving for rho, Initial residual = 0, Final residual = 0, No Iterations 0
diagonal:  Solving for rhoUx, Initial residual = 0, Final residual = 0, No Iterations 0
diagonal:  Solving for rhoUy, Initial residual = 0, Final residual = 0, No Iterations 0
smoothSolver:  Solving for Ux, Initial residual = 5.74345e-05, Final residual = 1.14436e-07, No Iterations 2
smoothSolver:  Solving for Uy, Initial residual = 5.85451e-05, Final residual = 4.21352e-08, No Iterations 2
diagonal:  Solving for rhoE, Initial residual = 0, Final residual = 0, No Iterations 0
smoothSolver:  Solving for e, Initial residual = 9.84175e-05, Final residual = 7.2923e-08, No Iterations 4
Phase no 1.0  ExecutionTime = 9624 s  ClockTime = 13518 s  Iteration no 4645 (1.8 s)

Mean and max Courant Numbers = 0.0351421 0.301047
deltaT = 2.10531e-07
Time = 0.005997263096

diagonal:  Solving for rho, Initial residual = 0, Final residual = 0, No Iterations 0
diagonal:  Solving for rhoUx, Initial residual = 0, Final residual = 0, No Iterations 0
diagonal:  Solving for rhoUy, Initial residual = 0, Final residual = 0, No Iterations 0
smoothSolver:  Solving for Ux, Initial residual = 5.74339e-05, Final residual = 1.14433e-07, No Iterations 2
smoothSolver:  Solving for Uy, Initial residual = 5.8545e-05, Final residual = 4.21356e-08, No Iterations 2
diagonal:  Solving for rhoE, Initial residual = 0, Final residual = 0, No Iterations 0
smoothSolver:  Solving for e, Initial residual = 9.84172e-05, Final residual = 7.29224e-08, No Iterations 4
Phase no 1.0  ExecutionTime = 9625.94 s  ClockTime = 13520 s  Iteration no 4646 (1.94 s)

Mean and max Courant Numbers = 0.0351422 0.301049
deltaT = 2.10531e-07
Time = 0.005997473627

diagonal:  Solving for rho, Initial residual = 0, Final residual = 0, No Iterations 0
diagonal:  Solving for rhoUx, Initial residual = 0, Final residual = 0, No Iterations 0
diagonal:  Solving for rhoUy, Initial residual = 0, Final residual = 0, No Iterations 0
smoothSolver:  Solving for Ux, Initial residual = 5.74332e-05, Final residual = 1.1443e-07, No Iterations 2
smoothSolver:  Solving for Uy, Initial residual = 5.8545e-05, Final residual = 4.21361e-08, No Iterations 2
diagonal:  Solving for rhoE, Initial residual = 0, Final residual = 0, No Iterations 0
smoothSolver:  Solving for e, Initial residual = 9.84168e-05, Final residual = 7.29218e-08, No Iterations 4
Phase no 1.0  ExecutionTime = 9628 s  ClockTime = 13522 s  Iteration no 4647 (2.06 s)

Mean and max Courant Numbers = 0.0351423 0.301051
deltaT = 2.10531e-07
Time = 0.005997684158

diagonal:  Solving for rho, Initial residual = 0, Final residual = 0, No Iterations 0
diagonal:  Solving for rhoUx, Initial residual = 0, Final residual = 0, No Iterations 0
diagonal:  Solving for rhoUy, Initial residual = 0, Final residual = 0, No Iterations 0
smoothSolver:  Solving for Ux, Initial residual = 5.74326e-05, Final residual = 1.14427e-07, No Iterations 2
smoothSolver:  Solving for Uy, Initial residual = 5.85447e-05, Final residual = 4.21365e-08, No Iterations 2
diagonal:  Solving for rhoE, Initial residual = 0, Final residual = 0, No Iterations 0
smoothSolver:  Solving for e, Initial residual = 9.84163e-05, Final residual = 7.29213e-08, No Iterations 4
Phase no 1.0  ExecutionTime = 9629.81 s  ClockTime = 13524 s  Iteration no 4648 (1.81 s)

Mean and max Courant Numbers = 0.0351423 0.301053
deltaT = 2.10531e-07
Time = 0.005997894689

diagonal:  Solving for rho, Initial residual = 0, Final residual = 0, No Iterations 0
diagonal:  Solving for rhoUx, Initial residual = 0, Final residual = 0, No Iterations 0
diagonal:  Solving for rhoUy, Initial residual = 0, Final residual = 0, No Iterations 0
smoothSolver:  Solving for Ux, Initial residual = 5.74319e-05, Final residual = 1.14424e-07, No Iterations 2
smoothSolver:  Solving for Uy, Initial residual = 5.85443e-05, Final residual = 4.21369e-08, No Iterations 2
diagonal:  Solving for rhoE, Initial residual = 0, Final residual = 0, No Iterations 0
smoothSolver:  Solving for e, Initial residual = 9.84159e-05, Final residual = 7.29207e-08, No Iterations 4
Phase no 1.0  ExecutionTime = 9631.63 s  ClockTime = 13526 s  Iteration no 4649 (1.82 s)

Mean and max Courant Numbers = 0.0351424 0.301056
deltaT = 2.10531e-07
Time = 0.00599810522

diagonal:  Solving for rho, Initial residual = 0, Final residual = 0, No Iterations 0
diagonal:  Solving for rhoUx, Initial residual = 0, Final residual = 0, No Iterations 0
diagonal:  Solving for rhoUy, Initial residual = 0, Final residual = 0, No Iterations 0
smoothSolver:  Solving for Ux, Initial residual = 5.74313e-05, Final residual = 1.14421e-07, No Iterations 2
smoothSolver:  Solving for Uy, Initial residual = 5.85438e-05, Final residual = 4.21373e-08, No Iterations 2
diagonal:  Solving for rhoE, Initial residual = 0, Final residual = 0, No Iterations 0
smoothSolver:  Solving for e, Initial residual = 9.84156e-05, Final residual = 7.29202e-08, No Iterations 4
Phase no 1.0  ExecutionTime = 9633.55 s  ClockTime = 13528 s  Iteration no 4650 (1.92 s)

Mean and max Courant Numbers = 0.0351425 0.301058
deltaT = 2.10531e-07
Time = 0.005998315751

diagonal:  Solving for rho, Initial residual = 0, Final residual = 0, No Iterations 0
diagonal:  Solving for rhoUx, Initial residual = 0, Final residual = 0, No Iterations 0
diagonal:  Solving for rhoUy, Initial residual = 0, Final residual = 0, No Iterations 0
smoothSolver:  Solving for Ux, Initial residual = 5.74305e-05, Final residual = 1.14419e-07, No Iterations 2
smoothSolver:  Solving for Uy, Initial residual = 5.85435e-05, Final residual = 4.21378e-08, No Iterations 2
diagonal:  Solving for rhoE, Initial residual = 0, Final residual = 0, No Iterations 0
smoothSolver:  Solving for e, Initial residual = 9.84152e-05, Final residual = 7.29196e-08, No Iterations 4
Phase no 1.0  ExecutionTime = 9635.47 s  ClockTime = 13530 s  Iteration no 4651 (1.92 s)

Mean and max Courant Numbers = 0.0351426 0.30106
deltaT = 2.10531e-07
Time = 0.005998526282

diagonal:  Solving for rho, Initial residual = 0, Final residual = 0, No Iterations 0
diagonal:  Solving for rhoUx, Initial residual = 0, Final residual = 0, No Iterations 0
diagonal:  Solving for rhoUy, Initial residual = 0, Final residual = 0, No Iterations 0
smoothSolver:  Solving for Ux, Initial residual = 5.74298e-05, Final residual = 1.14416e-07, No Iterations 2
smoothSolver:  Solving for Uy, Initial residual = 5.85433e-05, Final residual = 4.21383e-08, No Iterations 2
diagonal:  Solving for rhoE, Initial residual = 0, Final residual = 0, No Iterations 0
smoothSolver:  Solving for e, Initial residual = 9.84148e-05, Final residual = 7.29191e-08, No Iterations 4
Phase no 1.0  ExecutionTime = 9637.64 s  ClockTime = 13532 s  Iteration no 4652 (2.17 s)

Mean and max Courant Numbers = 0.0351427 0.301063
deltaT = 2.10531e-07
Time = 0.005998736813

diagonal:  Solving for rho, Initial residual = 0, Final residual = 0, No Iterations 0
diagonal:  Solving for rhoUx, Initial residual = 0, Final residual = 0, No Iterations 0
diagonal:  Solving for rhoUy, Initial residual = 0, Final residual = 0, No Iterations 0
smoothSolver:  Solving for Ux, Initial residual = 5.74291e-05, Final residual = 1.14413e-07, No Iterations 2
smoothSolver:  Solving for Uy, Initial residual = 5.85429e-05, Final residual = 4.21389e-08, No Iterations 2
diagonal:  Solving for rhoE, Initial residual = 0, Final residual = 0, No Iterations 0
smoothSolver:  Solving for e, Initial residual = 9.84144e-05, Final residual = 7.29186e-08, No Iterations 4
Phase no 1.0  ExecutionTime = 9639.64 s  ClockTime = 13534 s  Iteration no 4653 (2 s)

Mean and max Courant Numbers = 0.0351427 0.301065
deltaT = 2.10531e-07
Time = 0.005998947344

diagonal:  Solving for rho, Initial residual = 0, Final residual = 0, No Iterations 0
diagonal:  Solving for rhoUx, Initial residual = 0, Final residual = 0, No Iterations 0
diagonal:  Solving for rhoUy, Initial residual = 0, Final residual = 0, No Iterations 0
smoothSolver:  Solving for Ux, Initial residual = 5.74283e-05, Final residual = 1.14411e-07, No Iterations 2
smoothSolver:  Solving for Uy, Initial residual = 5.85426e-05, Final residual = 4.21395e-08, No Iterations 2
diagonal:  Solving for rhoE, Initial residual = 0, Final residual = 0, No Iterations 0
smoothSolver:  Solving for e, Initial residual = 9.84139e-05, Final residual = 7.2918e-08, No Iterations 4
Phase no 1.0  ExecutionTime = 9641.57 s  ClockTime = 13536 s  Iteration no 4654 (1.93 s)

Mean and max Courant Numbers = 0.0351428 0.301067
deltaT = 2.10531e-07
Time = 0.005999157876

diagonal:  Solving for rho, Initial residual = 0, Final residual = 0, No Iterations 0
diagonal:  Solving for rhoUx, Initial residual = 0, Final residual = 0, No Iterations 0
diagonal:  Solving for rhoUy, Initial residual = 0, Final residual = 0, No Iterations 0
smoothSolver:  Solving for Ux, Initial residual = 5.74275e-05, Final residual = 1.14408e-07, No Iterations 2
smoothSolver:  Solving for Uy, Initial residual = 5.85421e-05, Final residual = 4.21401e-08, No Iterations 2
diagonal:  Solving for rhoE, Initial residual = 0, Final residual = 0, No Iterations 0
smoothSolver:  Solving for e, Initial residual = 9.84134e-05, Final residual = 7.29175e-08, No Iterations 4
Phase no 1.0  ExecutionTime = 9643.59 s  ClockTime = 13538 s  Iteration no 4655 (2.02 s)

Mean and max Courant Numbers = 0.0351429 0.301069
deltaT = 2.10531e-07
Time = 0.005999368407

diagonal:  Solving for rho, Initial residual = 0, Final residual = 0, No Iterations 0
diagonal:  Solving for rhoUx, Initial residual = 0, Final residual = 0, No Iterations 0
diagonal:  Solving for rhoUy, Initial residual = 0, Final residual = 0, No Iterations 0
smoothSolver:  Solving for Ux, Initial residual = 5.74266e-05, Final residual = 1.14405e-07, No Iterations 2
smoothSolver:  Solving for Uy, Initial residual = 5.85417e-05, Final residual = 4.21407e-08, No Iterations 2
diagonal:  Solving for rhoE, Initial residual = 0, Final residual = 0, No Iterations 0
smoothSolver:  Solving for e, Initial residual = 9.84129e-05, Final residual = 7.29169e-08, No Iterations 4
Phase no 1.0  ExecutionTime = 9645.53 s  ClockTime = 13540 s  Iteration no 4656 (1.94 s)

Mean and max Courant Numbers = 0.035143 0.301072
deltaT = 2.10531e-07
Time = 0.005999578938

diagonal:  Solving for rho, Initial residual = 0, Final residual = 0, No Iterations 0
diagonal:  Solving for rhoUx, Initial residual = 0, Final residual = 0, No Iterations 0
diagonal:  Solving for rhoUy, Initial residual = 0, Final residual = 0, No Iterations 0
smoothSolver:  Solving for Ux, Initial residual = 5.74258e-05, Final residual = 1.14402e-07, No Iterations 2
smoothSolver:  Solving for Uy, Initial residual = 5.85411e-05, Final residual = 4.21413e-08, No Iterations 2
diagonal:  Solving for rhoE, Initial residual = 0, Final residual = 0, No Iterations 0
smoothSolver:  Solving for e, Initial residual = 9.84124e-05, Final residual = 7.29164e-08, No Iterations 4
Phase no 1.0  ExecutionTime = 9647.32 s  ClockTime = 13541 s  Iteration no 4657 (1.79 s)

Mean and max Courant Numbers = 0.0351431 0.301074
deltaT = 2.10531e-07
Time = 0.005999789469

diagonal:  Solving for rho, Initial residual = 0, Final residual = 0, No Iterations 0
diagonal:  Solving for rhoUx, Initial residual = 0, Final residual = 0, No Iterations 0
diagonal:  Solving for rhoUy, Initial residual = 0, Final residual = 0, No Iterations 0
smoothSolver:  Solving for Ux, Initial residual = 5.74251e-05, Final residual = 1.144e-07, No Iterations 2
smoothSolver:  Solving for Uy, Initial residual = 5.85406e-05, Final residual = 4.21419e-08, No Iterations 2
diagonal:  Solving for rhoE, Initial residual = 0, Final residual = 0, No Iterations 0
smoothSolver:  Solving for e, Initial residual = 9.84118e-05, Final residual = 7.29159e-08, No Iterations 4
Phase no 1.0  ExecutionTime = 9649.25 s  ClockTime = 13543 s  Iteration no 4658 (1.93 s)

Mean and max Courant Numbers = 0.0351431 0.301076
deltaT = 2.10531e-07
Time = 0.006

diagonal:  Solving for rho, Initial residual = 0, Final residual = 0, No Iterations 0
diagonal:  Solving for rhoUx, Initial residual = 0, Final residual = 0, No Iterations 0
diagonal:  Solving for rhoUy, Initial residual = 0, Final residual = 0, No Iterations 0
smoothSolver:  Solving for Ux, Initial residual = 5.74244e-05, Final residual = 1.14397e-07, No Iterations 2
smoothSolver:  Solving for Uy, Initial residual = 5.854e-05, Final residual = 4.21425e-08, No Iterations 2
diagonal:  Solving for rhoE, Initial residual = 0, Final residual = 0, No Iterations 0
smoothSolver:  Solving for e, Initial residual = 9.84111e-05, Final residual = 7.29153e-08, No Iterations 4

Integrated convection wall heat flux [W]
Patch 4 named obstacle_master: 162.205
   convective trans-rot  (%): 97.7048
   convective vibro-elec (%): 2.2952
   diffusive             (%): TBC

Patch 5 named obstacle_slave: 20.6796
   convective trans-rot  (%): 99.0709
   convective vibro-elec (%): 0.929079
   diffusive             (%): TBC


Phase no 1.0  ExecutionTime = 9652.63 s  ClockTime = 13547 s  Iteration no 4659 (3.38 s)

    functionObjects::grad grad(p) writing field: grad(p)
Total no of Iterations 4659
End

Finalising parallel run
